MODEL 1
REMARK VINA RESULT:      -4.9      0.000      0.000
REMARK  2 active torsions:
REMARK  status: ('A' for Active; 'I' for Inactive)
REMARK    1  A    between atoms: C_6  and  C_7 
REMARK    2  A    between atoms: C_7  and  O_9 
ROOT
ATOM      1  C   UNL d   1     142.363 140.848  98.615  0.00  0.00     0.043 C 
ATOM      2  C   UNL d   1     143.715 140.209  98.757  0.00  0.00    -0.080 C 
ATOM      3  C   UNL d   1     144.112 139.225  97.934  0.00  0.00     0.053 C 
ATOM      4  C   UNL d   1     145.423 138.556  98.117  0.00  0.00     0.164 C 
ATOM      5  O   UNL d   1     145.779 137.706  97.302  0.00  0.00    -0.292 OA
ATOM      6  C   UNL d   1     146.265 138.916  99.321  0.00  0.00     0.161 C 
ATOM      7  C   UNL d   1     146.065 140.385  99.734  0.00  0.00     0.007 C 
ATOM      8  C   UNL d   1     146.757 141.332  98.742  0.00  0.00     0.011 C 
ATOM      9  C   UNL d   1     144.572 140.728  99.883  0.00  0.00     0.039 C 
ENDROOT
BRANCH   6  10
ATOM     10  C   UNL d   1     145.981 137.997 100.478  0.00  0.00     0.151 C 
ATOM     11  O   UNL d   1     146.102 138.239 101.666  0.00  0.00    -0.649 OA
BRANCH  10  12
ATOM     12  O   UNL d   1     145.589 136.769 100.076  0.00  0.00    -0.776 OA
ATOM     13  H   UNL d   1     146.184 136.561  99.324  0.00  0.00     0.167 HD
ENDBRANCH  10  12
ENDBRANCH   6  10
TORSDOF 2
ENDMDL
MODEL 2
REMARK VINA RESULT:      -4.8      1.206      3.338
REMARK  2 active torsions:
REMARK  status: ('A' for Active; 'I' for Inactive)
REMARK    1  A    between atoms: C_6  and  C_7 
REMARK    2  A    between atoms: C_7  and  O_9 
ROOT
ATOM      1  C   UNL d   1     148.260 140.645  98.081  0.00  0.00     0.043 C 
ATOM      2  C   UNL d   1     147.079 139.877  98.602  0.00  0.00    -0.080 C 
ATOM      3  C   UNL d   1     147.090 139.322  99.825  0.00  0.00     0.053 C 
ATOM      4  C   UNL d   1     145.946 138.514 100.311  0.00  0.00     0.164 C 
ATOM      5  O   UNL d   1     145.968 138.080 101.461  0.00  0.00    -0.292 OA
ATOM      6  C   UNL d   1     144.804 138.221  99.363  0.00  0.00     0.161 C 
ATOM      7  C   UNL d   1     144.590 139.370  98.362  0.00  0.00     0.007 C 
ATOM      8  C   UNL d   1     143.945 140.582  99.049  0.00  0.00     0.011 C 
ATOM      9  C   UNL d   1     145.905 139.759  97.664  0.00  0.00     0.039 C 
ENDROOT
BRANCH   6  10
ATOM     10  C   UNL d   1     145.019 136.920  98.639  0.00  0.00     0.151 C 
ATOM     11  O   UNL d   1     144.901 136.706  97.445  0.00  0.00    -0.649 OA
BRANCH  10  12
ATOM     12  O   UNL d   1     145.337 135.910  99.477  0.00  0.00    -0.776 OA
ATOM     13  H   UNL d   1     145.994 135.380  98.976  0.00  0.00     0.167 HD
ENDBRANCH  10  12
ENDBRANCH   6  10
TORSDOF 2
ENDMDL
MODEL 3
REMARK VINA RESULT:      -4.4     14.788     16.196
REMARK  2 active torsions:
REMARK  status: ('A' for Active; 'I' for Inactive)
REMARK    1  A    between atoms: C_6  and  C_7 
REMARK    2  A    between atoms: C_7  and  O_9 
ROOT
ATOM      1  C   UNL d   1     136.058 132.097  91.515  0.00  0.00     0.043 C 
ATOM      2  C   UNL d   1     135.008 131.263  92.193  0.00  0.00    -0.080 C 
ATOM      3  C   UNL d   1     134.839 131.301  93.525  0.00  0.00     0.053 C 
ATOM      4  C   UNL d   1     133.843 130.431  94.196  0.00  0.00     0.164 C 
ATOM      5  O   UNL d   1     133.672 130.544  95.409  0.00  0.00    -0.292 OA
ATOM      6  C   UNL d   1     133.094 129.407  93.371  0.00  0.00     0.161 C 
ATOM      7  C   UNL d   1     132.871 129.895  91.929  0.00  0.00     0.007 C 
ATOM      8  C   UNL d   1     131.792 130.987  91.881  0.00  0.00     0.011 C 
ATOM      9  C   UNL d   1     134.184 130.380  91.291  0.00  0.00     0.039 C 
ENDROOT
BRANCH   6  10
ATOM     10  C   UNL d   1     133.803 128.080  93.379  0.00  0.00     0.151 C 
ATOM     11  O   UNL d   1     133.581 127.116  92.666  0.00  0.00    -0.649 OA
BRANCH  10  12
ATOM     12  O   UNL d   1     134.752 128.007  94.336  0.00  0.00    -0.776 OA
ATOM     13  H   UNL d   1     135.537 127.649  93.868  0.00  0.00     0.167 HD
ENDBRANCH  10  12
ENDBRANCH   6  10
TORSDOF 2
ENDMDL
MODEL 4
REMARK VINA RESULT:      -4.4      5.905      6.754
REMARK  2 active torsions:
REMARK  status: ('A' for Active; 'I' for Inactive)
REMARK    1  A    between atoms: C_6  and  C_7 
REMARK    2  A    between atoms: C_7  and  O_9 
ROOT
ATOM      1  C   UNL d   1     141.404 136.815  98.524  0.00  0.00     0.043 C 
ATOM      2  C   UNL d   1     141.821 135.406  98.212  0.00  0.00    -0.080 C 
ATOM      3  C   UNL d   1     141.285 134.730  97.184  0.00  0.00     0.053 C 
ATOM      4  C   UNL d   1     141.656 133.319  96.917  0.00  0.00     0.164 C 
ATOM      5  O   UNL d   1     141.193 132.757  95.926  0.00  0.00    -0.292 OA
ATOM      6  C   UNL d   1     142.566 132.607  97.893  0.00  0.00     0.161 C 
ATOM      7  C   UNL d   1     143.567 133.576  98.546  0.00  0.00     0.007 C 
ATOM      8  C   UNL d   1     144.661 133.987  97.549  0.00  0.00     0.011 C 
ATOM      9  C   UNL d   1     142.855 134.808  99.132  0.00  0.00     0.039 C 
ENDROOT
BRANCH   6  10
ATOM     10  C   UNL d   1     141.772 131.877  98.943  0.00  0.00     0.151 C 
ATOM     11  O   UNL d   1     142.192 131.351  99.959  0.00  0.00    -0.649 OA
BRANCH  10  12
ATOM     12  O   UNL d   1     140.459 131.804  98.638  0.00  0.00    -0.776 OA
ATOM     13  H   UNL d   1     140.104 131.138  99.266  0.00  0.00     0.167 HD
ENDBRANCH  10  12
ENDBRANCH   6  10
TORSDOF 2
ENDMDL
MODEL 5
REMARK VINA RESULT:      -4.4     15.706     17.103
REMARK  2 active torsions:
REMARK  status: ('A' for Active; 'I' for Inactive)
REMARK    1  A    between atoms: C_6  and  C_7 
REMARK    2  A    between atoms: C_7  and  O_9 
ROOT
ATOM      1  C   UNL d   1     134.541 129.645  96.267  0.00  0.00     0.043 C 
ATOM      2  C   UNL d   1     134.060 129.479  94.854  0.00  0.00    -0.080 C 
ATOM      3  C   UNL d   1     134.366 130.376  93.903  0.00  0.00     0.053 C 
ATOM      4  C   UNL d   1     133.838 130.240  92.523  0.00  0.00     0.164 C 
ATOM      5  O   UNL d   1     134.196 131.046  91.665  0.00  0.00    -0.292 OA
ATOM      6  C   UNL d   1     132.849 129.135  92.225  0.00  0.00     0.161 C 
ATOM      7  C   UNL d   1     133.107 127.893  93.097  0.00  0.00     0.007 C 
ATOM      8  C   UNL d   1     134.362 127.143  92.625  0.00  0.00     0.011 C 
ATOM      9  C   UNL d   1     133.208 128.265  94.587  0.00  0.00     0.039 C 
ENDROOT
BRANCH   6  10
ATOM     10  C   UNL d   1     131.433 129.614  92.390  0.00  0.00     0.151 C 
ATOM     11  O   UNL d   1     130.462 128.958  92.727  0.00  0.00    -0.649 OA
BRANCH  10  12
ATOM     12  O   UNL d   1     131.289 130.918  92.074  0.00  0.00    -0.776 OA
ATOM     13  H   UNL d   1     131.744 131.393  92.802  0.00  0.00     0.167 HD
ENDBRANCH  10  12
ENDBRANCH   6  10
TORSDOF 2
ENDMDL
MODEL 6
REMARK VINA RESULT:      -4.4      2.416      3.729
REMARK  2 active torsions:
REMARK  status: ('A' for Active; 'I' for Inactive)
REMARK    1  A    between atoms: C_6  and  C_7 
REMARK    2  A    between atoms: C_7  and  O_9 
ROOT
ATOM      1  C   UNL d   1     146.284 138.023 101.207  0.00  0.00     0.043 C 
ATOM      2  C   UNL d   1     146.119 139.081 100.154  0.00  0.00    -0.080 C 
ATOM      3  C   UNL d   1     146.604 138.915  98.913  0.00  0.00     0.053 C 
ATOM      4  C   UNL d   1     146.491 139.988  97.896  0.00  0.00     0.164 C 
ATOM      5  O   UNL d   1     146.890 139.770  96.752  0.00  0.00    -0.292 OA
ATOM      6  C   UNL d   1     145.923 141.327  98.307  0.00  0.00     0.161 C 
ATOM      7  C   UNL d   1     144.866 141.178  99.416  0.00  0.00     0.007 C 
ATOM      8  C   UNL d   1     143.561 140.594  98.855  0.00  0.00     0.011 C 
ATOM      9  C   UNL d   1     145.397 140.332 100.587  0.00  0.00     0.039 C 
ENDROOT
BRANCH   6  10
ATOM     10  C   UNL d   1     147.012 142.272  98.736  0.00  0.00     0.151 C 
ATOM     11  O   UNL d   1     146.887 143.325  99.339  0.00  0.00    -0.649 OA
BRANCH  10  12
ATOM     12  O   UNL d   1     148.236 141.863  98.339  0.00  0.00    -0.776 OA
ATOM     13  H   UNL d   1     148.757 142.692  98.276  0.00  0.00     0.167 HD
ENDBRANCH  10  12
ENDBRANCH   6  10
TORSDOF 2
ENDMDL
MODEL 7
REMARK VINA RESULT:      -4.3      5.076      6.595
REMARK  2 active torsions:
REMARK  status: ('A' for Active; 'I' for Inactive)
REMARK    1  A    between atoms: C_6  and  C_7 
REMARK    2  A    between atoms: C_7  and  O_9 
ROOT
ATOM      1  C   UNL d   1     145.933 143.437  94.994  0.00  0.00     0.043 C 
ATOM      2  C   UNL d   1     144.541 142.927  95.238  0.00  0.00    -0.080 C 
ATOM      3  C   UNL d   1     143.837 142.326  94.265  0.00  0.00     0.053 C 
ATOM      4  C   UNL d   1     142.441 141.880  94.494  0.00  0.00     0.164 C 
ATOM      5  O   UNL d   1     141.854 141.274  93.599  0.00  0.00    -0.292 OA
ATOM      6  C   UNL d   1     141.773 142.216  95.809  0.00  0.00     0.161 C 
ATOM      7  C   UNL d   1     142.788 142.257  96.966  0.00  0.00     0.007 C 
ATOM      8  C   UNL d   1     143.238 140.840  97.350  0.00  0.00     0.011 C 
ATOM      9  C   UNL d   1     143.993 143.151  96.624  0.00  0.00     0.039 C 
ENDROOT
BRANCH   6  10
ATOM     10  C   UNL d   1     141.018 143.513  95.719  0.00  0.00     0.151 C 
ATOM     11  O   UNL d   1     140.621 144.207  96.640  0.00  0.00    -0.649 OA
BRANCH  10  12
ATOM     12  O   UNL d   1     140.751 143.868  94.444  0.00  0.00    -0.776 OA
ATOM     13  H   UNL d   1     141.602 143.733  93.975  0.00  0.00     0.167 HD
ENDBRANCH  10  12
ENDBRANCH   6  10
TORSDOF 2
ENDMDL
MODEL 8
REMARK VINA RESULT:      -4.3     14.751     16.256
REMARK  2 active torsions:
REMARK  status: ('A' for Active; 'I' for Inactive)
REMARK    1  A    between atoms: C_6  and  C_7 
REMARK    2  A    between atoms: C_7  and  O_9 
ROOT
ATOM      1  C   UNL d   1     134.218 127.934  92.659  0.00  0.00     0.043 C 
ATOM      2  C   UNL d   1     133.904 129.335  92.217  0.00  0.00    -0.080 C 
ATOM      3  C   UNL d   1     134.750 130.028  91.438  0.00  0.00     0.053 C 
ATOM      4  C   UNL d   1     134.463 131.431  91.055  0.00  0.00     0.164 C 
ATOM      5  O   UNL d   1     135.231 132.009  90.286  0.00  0.00    -0.292 OA
ATOM      6  C   UNL d   1     133.255 132.119  91.650  0.00  0.00     0.161 C 
ATOM      7  C   UNL d   1     132.111 131.124  91.915  0.00  0.00     0.007 C 
ATOM      8  C   UNL d   1     131.443 130.694  90.601  0.00  0.00     0.011 C 
ATOM      9  C   UNL d   1     132.601 129.905  92.716  0.00  0.00     0.039 C 
ENDROOT
BRANCH   6  10
ATOM     10  C   UNL d   1     133.616 132.860  92.908  0.00  0.00     0.151 C 
ATOM     11  O   UNL d   1     132.875 133.511  93.625  0.00  0.00    -0.649 OA
BRANCH  10  12
ATOM     12  O   UNL d   1     134.934 132.784  93.192  0.00  0.00    -0.776 OA
ATOM     13  H   UNL d   1     135.013 131.977  93.745  0.00  0.00     0.167 HD
ENDBRANCH  10  12
ENDBRANCH   6  10
TORSDOF 2
ENDMDL
MODEL 9
REMARK VINA RESULT:      -4.2      1.579      2.362
REMARK  2 active torsions:
REMARK  status: ('A' for Active; 'I' for Inactive)
REMARK    1  A    between atoms: C_6  and  C_7 
REMARK    2  A    between atoms: C_7  and  O_9 
ROOT
ATOM      1  C   UNL d   1     143.869 142.170  96.930  0.00  0.00     0.043 C 
ATOM      2  C   UNL d   1     144.642 141.298  97.877  0.00  0.00    -0.080 C 
ATOM      3  C   UNL d   1     145.980 141.210  97.812  0.00  0.00     0.053 C 
ATOM      4  C   UNL d   1     146.733 140.301  98.710  0.00  0.00     0.164 C 
ATOM      5  O   UNL d   1     147.962 140.299  98.664  0.00  0.00    -0.292 OA
ATOM      6  C   UNL d   1     145.963 139.379  99.629  0.00  0.00     0.161 C 
ATOM      7  C   UNL d   1     144.633 140.010 100.080  0.00  0.00     0.007 C 
ATOM      8  C   UNL d   1     144.876 141.126 101.107  0.00  0.00     0.011 C 
ATOM      9  C   UNL d   1     143.821 140.526  98.879  0.00  0.00     0.039 C 
ENDROOT
BRANCH   6  10
ATOM     10  C   UNL d   1     145.723 138.042  98.983  0.00  0.00     0.151 C 
ATOM     11  O   UNL d   1     145.584 137.806  97.795  0.00  0.00    -0.649 OA
BRANCH  10  12
ATOM     12  O   UNL d   1     145.625 137.043  99.886  0.00  0.00    -0.776 OA
ATOM     13  H   UNL d   1     146.309 137.257 100.556  0.00  0.00     0.167 HD
ENDBRANCH  10  12
ENDBRANCH   6  10
TORSDOF 2
ENDMDL
