../results/processed/lowest_conf/7XP6/docked/b1.pdbqt
 OpenBabel07252415363D

 13 13  0  0  1  0  0  0  0  0999 V2000
  142.3630  140.8480   98.6150 C   0  0  0  0  0  1  0  0  0  0  0  0
  143.7150  140.2090   98.7570 C   0  0  0  0  0  0  0  0  0  0  0  0
  144.1120  139.2250   97.9340 C   0  0  0  0  0  3  0  0  0  0  0  0
  145.4230  138.5560   98.1170 C   0  0  0  0  0  0  0  0  0  0  0  0
  145.7790  137.7060   97.3020 O   0  0  0  0  0  0  0  0  0  0  0  0
  146.2650  138.9160   99.3210 C   0  0  1  0  0  3  0  0  0  0  0  0
  146.0650  140.3850   99.7340 C   0  0  1  0  0  3  0  0  0  0  0  0
  146.7570  141.3320   98.7420 C   0  0  0  0  0  1  0  0  0  0  0  0
  144.5720  140.7280   99.8830 C   0  0  0  0  0  2  0  0  0  0  0  0
  145.9810  137.9970  100.4780 C   0  0  0  0  0  0  0  0  0  0  0  0
  146.1020  138.2390  101.6660 O   0  0  0  0  0  0  0  0  0  0  0  0
  145.5890  136.7690  100.0760 O   0  0  0  0  0  0  0  0  0  0  0  0
  146.1840  136.5610   99.3240 H   0  0  0  0  0  0  0  0  0  0  0  0
  1  2  1  0  0  0  0
  2  9  1  0  0  0  0
  3  4  1  0  0  0  0
  3  2  2  0  0  0  0
  4  6  1  0  0  0  0
  5  4  2  0  0  0  0
  6  7  1  0  0  0  0
  6 10  1  1  0  0  0
  7  8  1  6  0  0  0
  7  9  1  0  0  0  0
 10 11  2  0  0  0  0
 12 10  1  0  0  0  0
 13 12  1  0  0  0  0
M  END
>  <MODEL>
1

>  <REMARK>
 VINA RESULT:      -4.9      0.000      0.000
  2 active torsions:
  status: ('A' for Active; 'I' for Inactive)
    1  A    between atoms: C_6  and  C_7 
    2  A    between atoms: C_7  and  O_9 

>  <TORSDO>
F 2

$$$$
../results/processed/lowest_conf/7XP6/docked/b1.pdbqt
 OpenBabel07252415363D

 13 13  0  0  1  0  0  0  0  0999 V2000
  148.2600  140.6450   98.0810 C   0  0  0  0  0  1  0  0  0  0  0  0
  147.0790  139.8770   98.6020 C   0  0  0  0  0  0  0  0  0  0  0  0
  147.0900  139.3220   99.8250 C   0  0  0  0  0  3  0  0  0  0  0  0
  145.9460  138.5140  100.3110 C   0  0  0  0  0  0  0  0  0  0  0  0
  145.9680  138.0800  101.4610 O   0  0  0  0  0  0  0  0  0  0  0  0
  144.8040  138.2210   99.3630 C   0  0  1  0  0  3  0  0  0  0  0  0
  144.5900  139.3700   98.3620 C   0  0  1  0  0  3  0  0  0  0  0  0
  143.9450  140.5820   99.0490 C   0  0  0  0  0  1  0  0  0  0  0  0
  145.9050  139.7590   97.6640 C   0  0  0  0  0  2  0  0  0  0  0  0
  145.0190  136.9200   98.6390 C   0  0  0  0  0  0  0  0  0  0  0  0
  144.9010  136.7060   97.4450 O   0  0  0  0  0  0  0  0  0  0  0  0
  145.3370  135.9100   99.4770 O   0  0  0  0  0  0  0  0  0  0  0  0
  145.9940  135.3800   98.9760 H   0  0  0  0  0  0  0  0  0  0  0  0
  1  2  1  0  0  0  0
  2  3  2  0  0  0  0
  3  4  1  0  0  0  0
  4  5  2  0  0  0  0
  6 10  1  6  0  0  0
  6  4  1  0  0  0  0
  7  8  1  1  0  0  0
  7  6  1  0  0  0  0
  9  7  1  0  0  0  0
  9  2  1  0  0  0  0
 10 12  1  0  0  0  0
 11 10  2  0  0  0  0
 13 12  1  0  0  0  0
M  END
>  <MODEL>
2

>  <REMARK>
 VINA RESULT:      -4.8      1.206      3.338
  2 active torsions:
  status: ('A' for Active; 'I' for Inactive)
    1  A    between atoms: C_6  and  C_7 
    2  A    between atoms: C_7  and  O_9 

>  <TORSDO>
F 2

$$$$
../results/processed/lowest_conf/7XP6/docked/b1.pdbqt
 OpenBabel07252415363D

 13 13  0  0  1  0  0  0  0  0999 V2000
  136.0580  132.0970   91.5150 C   0  0  0  0  0  1  0  0  0  0  0  0
  135.0080  131.2630   92.1930 C   0  0  0  0  0  0  0  0  0  0  0  0
  134.8390  131.3010   93.5250 C   0  0  0  0  0  3  0  0  0  0  0  0
  133.8430  130.4310   94.1960 C   0  0  0  0  0  0  0  0  0  0  0  0
  133.6720  130.5440   95.4090 O   0  0  0  0  0  0  0  0  0  0  0  0
  133.0940  129.4070   93.3710 C   0  0  1  0  0  3  0  0  0  0  0  0
  132.8710  129.8950   91.9290 C   0  0  1  0  0  3  0  0  0  0  0  0
  131.7920  130.9870   91.8810 C   0  0  0  0  0  1  0  0  0  0  0  0
  134.1840  130.3800   91.2910 C   0  0  0  0  0  2  0  0  0  0  0  0
  133.8030  128.0800   93.3790 C   0  0  0  0  0  0  0  0  0  0  0  0
  133.5810  127.1160   92.6660 O   0  0  0  0  0  0  0  0  0  0  0  0
  134.7520  128.0070   94.3360 O   0  0  0  0  0  0  0  0  0  0  0  0
  135.5370  127.6490   93.8680 H   0  0  0  0  0  0  0  0  0  0  0  0
  1  2  1  0  0  0  0
  2  3  2  0  0  0  0
  3  4  1  0  0  0  0
  4  5  2  0  0  0  0
  6 10  1  6  0  0  0
  6  4  1  0  0  0  0
  7  8  1  1  0  0  0
  7  6  1  0  0  0  0
  9  7  1  0  0  0  0
  9  2  1  0  0  0  0
 10 12  1  0  0  0  0
 11 10  2  0  0  0  0
 13 12  1  0  0  0  0
M  END
>  <MODEL>
3

>  <REMARK>
 VINA RESULT:      -4.4     14.788     16.196
  2 active torsions:
  status: ('A' for Active; 'I' for Inactive)
    1  A    between atoms: C_6  and  C_7 
    2  A    between atoms: C_7  and  O_9 

>  <TORSDO>
F 2

$$$$
../results/processed/lowest_conf/7XP6/docked/b1.pdbqt
 OpenBabel07252415363D

 13 13  0  0  1  0  0  0  0  0999 V2000
  141.4040  136.8150   98.5240 C   0  0  0  0  0  1  0  0  0  0  0  0
  141.8210  135.4060   98.2120 C   0  0  0  0  0  0  0  0  0  0  0  0
  141.2850  134.7300   97.1840 C   0  0  0  0  0  3  0  0  0  0  0  0
  141.6560  133.3190   96.9170 C   0  0  0  0  0  0  0  0  0  0  0  0
  141.1930  132.7570   95.9260 O   0  0  0  0  0  0  0  0  0  0  0  0
  142.5660  132.6070   97.8930 C   0  0  1  0  0  3  0  0  0  0  0  0
  143.5670  133.5760   98.5460 C   0  0  1  0  0  3  0  0  0  0  0  0
  144.6610  133.9870   97.5490 C   0  0  0  0  0  1  0  0  0  0  0  0
  142.8550  134.8080   99.1320 C   0  0  0  0  0  2  0  0  0  0  0  0
  141.7720  131.8770   98.9430 C   0  0  0  0  0  0  0  0  0  0  0  0
  142.1920  131.3510   99.9590 O   0  0  0  0  0  0  0  0  0  0  0  0
  140.4590  131.8040   98.6380 O   0  0  0  0  0  0  0  0  0  0  0  0
  140.1040  131.1380   99.2660 H   0  0  0  0  0  0  0  0  0  0  0  0
  2  1  1  0  0  0  0
  2  9  1  0  0  0  0
  3  2  2  0  0  0  0
  4  3  1  0  0  0  0
  4  6  1  0  0  0  0
  5  4  2  0  0  0  0
  6  7  1  0  0  0  0
  6 10  1  1  0  0  0
  7  8  1  6  0  0  0
  7  9  1  0  0  0  0
 10 11  2  0  0  0  0
 12 10  1  0  0  0  0
 12 13  1  0  0  0  0
M  END
>  <MODEL>
4

>  <REMARK>
 VINA RESULT:      -4.4      5.905      6.754
  2 active torsions:
  status: ('A' for Active; 'I' for Inactive)
    1  A    between atoms: C_6  and  C_7 
    2  A    between atoms: C_7  and  O_9 

>  <TORSDO>
F 2

$$$$
../results/processed/lowest_conf/7XP6/docked/b1.pdbqt
 OpenBabel07252415363D

 13 13  0  0  1  0  0  0  0  0999 V2000
  134.5410  129.6450   96.2670 C   0  0  0  0  0  1  0  0  0  0  0  0
  134.0600  129.4790   94.8540 C   0  0  0  0  0  0  0  0  0  0  0  0
  134.3660  130.3760   93.9030 C   0  0  0  0  0  3  0  0  0  0  0  0
  133.8380  130.2400   92.5230 C   0  0  0  0  0  0  0  0  0  0  0  0
  134.1960  131.0460   91.6650 O   0  0  0  0  0  0  0  0  0  0  0  0
  132.8490  129.1350   92.2250 C   0  0  1  0  0  3  0  0  0  0  0  0
  133.1070  127.8930   93.0970 C   0  0  1  0  0  3  0  0  0  0  0  0
  134.3620  127.1430   92.6250 C   0  0  0  0  0  1  0  0  0  0  0  0
  133.2080  128.2650   94.5870 C   0  0  0  0  0  2  0  0  0  0  0  0
  131.4330  129.6140   92.3900 C   0  0  0  0  0  0  0  0  0  0  0  0
  130.4620  128.9580   92.7270 O   0  0  0  0  0  0  0  0  0  0  0  0
  131.2890  130.9180   92.0740 O   0  0  0  0  0  0  0  0  0  0  0  0
  131.7440  131.3930   92.8020 H   0  0  0  0  0  0  0  0  0  0  0  0
  2  1  1  0  0  0  0
  3  2  2  0  0  0  0
  4  3  1  0  0  0  0
  5  4  2  0  0  0  0
  6 10  1  1  0  0  0
  6  4  1  0  0  0  0
  6  7  1  0  0  0  0
  7  8  1  6  0  0  0
  7  9  1  0  0  0  0
  9  2  1  0  0  0  0
 10 11  2  0  0  0  0
 12 10  1  0  0  0  0
 12 13  1  0  0  0  0
M  END
>  <MODEL>
5

>  <REMARK>
 VINA RESULT:      -4.4     15.706     17.103
  2 active torsions:
  status: ('A' for Active; 'I' for Inactive)
    1  A    between atoms: C_6  and  C_7 
    2  A    between atoms: C_7  and  O_9 

>  <TORSDO>
F 2

$$$$
../results/processed/lowest_conf/7XP6/docked/b1.pdbqt
 OpenBabel07252415363D

 13 13  0  0  1  0  0  0  0  0999 V2000
  146.2840  138.0230  101.2070 C   0  0  0  0  0  1  0  0  0  0  0  0
  146.1190  139.0810  100.1540 C   0  0  0  0  0  0  0  0  0  0  0  0
  146.6040  138.9150   98.9130 C   0  0  0  0  0  3  0  0  0  0  0  0
  146.4910  139.9880   97.8960 C   0  0  0  0  0  0  0  0  0  0  0  0
  146.8900  139.7700   96.7520 O   0  0  0  0  0  0  0  0  0  0  0  0
  145.9230  141.3270   98.3070 C   0  0  1  0  0  3  0  0  0  0  0  0
  144.8660  141.1780   99.4160 C   0  0  1  0  0  3  0  0  0  0  0  0
  143.5610  140.5940   98.8550 C   0  0  0  0  0  1  0  0  0  0  0  0
  145.3970  140.3320  100.5870 C   0  0  0  0  0  2  0  0  0  0  0  0
  147.0120  142.2720   98.7360 C   0  0  0  0  0  0  0  0  0  0  0  0
  146.8870  143.3250   99.3390 O   0  0  0  0  0  0  0  0  0  0  0  0
  148.2360  141.8630   98.3390 O   0  0  0  0  0  0  0  0  0  0  0  0
  148.7570  142.6920   98.2760 H   0  0  0  0  0  0  0  0  0  0  0  0
  2  9  1  0  0  0  0
  2  1  1  0  0  0  0
  3  2  2  0  0  0  0
  4  6  1  0  0  0  0
  4  3  1  0  0  0  0
  5  4  2  0  0  0  0
  6 10  1  1  0  0  0
  6  7  1  0  0  0  0
  7  8  1  6  0  0  0
  7  9  1  0  0  0  0
 10 11  2  0  0  0  0
 12 10  1  0  0  0  0
 13 12  1  0  0  0  0
M  END
>  <MODEL>
6

>  <REMARK>
 VINA RESULT:      -4.4      2.416      3.729
  2 active torsions:
  status: ('A' for Active; 'I' for Inactive)
    1  A    between atoms: C_6  and  C_7 
    2  A    between atoms: C_7  and  O_9 

>  <TORSDO>
F 2

$$$$
../results/processed/lowest_conf/7XP6/docked/b1.pdbqt
 OpenBabel07252415363D

 13 13  0  0  1  0  0  0  0  0999 V2000
  145.9330  143.4370   94.9940 C   0  0  0  0  0  1  0  0  0  0  0  0
  144.5410  142.9270   95.2380 C   0  0  0  0  0  0  0  0  0  0  0  0
  143.8370  142.3260   94.2650 C   0  0  0  0  0  3  0  0  0  0  0  0
  142.4410  141.8800   94.4940 C   0  0  0  0  0  0  0  0  0  0  0  0
  141.8540  141.2740   93.5990 O   0  0  0  0  0  0  0  0  0  0  0  0
  141.7730  142.2160   95.8090 C   0  0  1  0  0  3  0  0  0  0  0  0
  142.7880  142.2570   96.9660 C   0  0  1  0  0  3  0  0  0  0  0  0
  143.2380  140.8400   97.3500 C   0  0  0  0  0  1  0  0  0  0  0  0
  143.9930  143.1510   96.6240 C   0  0  0  0  0  2  0  0  0  0  0  0
  141.0180  143.5130   95.7190 C   0  0  0  0  0  0  0  0  0  0  0  0
  140.6210  144.2070   96.6400 O   0  0  0  0  0  0  0  0  0  0  0  0
  140.7510  143.8680   94.4440 O   0  0  0  0  0  0  0  0  0  0  0  0
  141.6020  143.7330   93.9750 H   0  0  0  0  0  0  0  0  0  0  0  0
  1  2  1  0  0  0  0
  2  9  1  0  0  0  0
  3  4  1  0  0  0  0
  3  2  2  0  0  0  0
  4  6  1  0  0  0  0
  5  4  2  0  0  0  0
  6 10  1  6  0  0  0
  6  7  1  0  0  0  0
  7  8  1  6  0  0  0
  9  7  1  0  0  0  0
 10 11  2  0  0  0  0
 12 10  1  0  0  0  0
 13 12  1  0  0  0  0
M  END
>  <MODEL>
7

>  <REMARK>
 VINA RESULT:      -4.3      5.076      6.595
  2 active torsions:
  status: ('A' for Active; 'I' for Inactive)
    1  A    between atoms: C_6  and  C_7 
    2  A    between atoms: C_7  and  O_9 

>  <TORSDO>
F 2

$$$$
../results/processed/lowest_conf/7XP6/docked/b1.pdbqt
 OpenBabel07252415363D

 13 13  0  0  1  0  0  0  0  0999 V2000
  134.2180  127.9340   92.6590 C   0  0  0  0  0  1  0  0  0  0  0  0
  133.9040  129.3350   92.2170 C   0  0  0  0  0  0  0  0  0  0  0  0
  134.7500  130.0280   91.4380 C   0  0  0  0  0  3  0  0  0  0  0  0
  134.4630  131.4310   91.0550 C   0  0  0  0  0  0  0  0  0  0  0  0
  135.2310  132.0090   90.2860 O   0  0  0  0  0  0  0  0  0  0  0  0
  133.2550  132.1190   91.6500 C   0  0  1  0  0  3  0  0  0  0  0  0
  132.1110  131.1240   91.9150 C   0  0  1  0  0  3  0  0  0  0  0  0
  131.4430  130.6940   90.6010 C   0  0  0  0  0  1  0  0  0  0  0  0
  132.6010  129.9050   92.7160 C   0  0  0  0  0  2  0  0  0  0  0  0
  133.6160  132.8600   92.9080 C   0  0  0  0  0  0  0  0  0  0  0  0
  132.8750  133.5110   93.6250 O   0  0  0  0  0  0  0  0  0  0  0  0
  134.9340  132.7840   93.1920 O   0  0  0  0  0  0  0  0  0  0  0  0
  135.0130  131.9770   93.7450 H   0  0  0  0  0  0  0  0  0  0  0  0
  2  1  1  0  0  0  0
  2  9  1  0  0  0  0
  3  2  2  0  0  0  0
  4  3  1  0  0  0  0
  4  6  1  0  0  0  0
  5  4  2  0  0  0  0
  6  7  1  0  0  0  0
  6 10  1  1  0  0  0
  7  8  1  6  0  0  0
  7  9  1  0  0  0  0
 10 12  1  0  0  0  0
 10 11  2  0  0  0  0
 12 13  1  0  0  0  0
M  END
>  <MODEL>
8

>  <REMARK>
 VINA RESULT:      -4.3     14.751     16.256
  2 active torsions:
  status: ('A' for Active; 'I' for Inactive)
    1  A    between atoms: C_6  and  C_7 
    2  A    between atoms: C_7  and  O_9 

>  <TORSDO>
F 2

$$$$
../results/processed/lowest_conf/7XP6/docked/b1.pdbqt
 OpenBabel07252415363D

 13 13  0  0  1  0  0  0  0  0999 V2000
  143.8690  142.1700   96.9300 C   0  0  0  0  0  1  0  0  0  0  0  0
  144.6420  141.2980   97.8770 C   0  0  0  0  0  0  0  0  0  0  0  0
  145.9800  141.2100   97.8120 C   0  0  0  0  0  3  0  0  0  0  0  0
  146.7330  140.3010   98.7100 C   0  0  0  0  0  0  0  0  0  0  0  0
  147.9620  140.2990   98.6640 O   0  0  0  0  0  0  0  0  0  0  0  0
  145.9630  139.3790   99.6290 C   0  0  1  0  0  3  0  0  0  0  0  0
  144.6330  140.0100  100.0800 C   0  0  1  0  0  3  0  0  0  0  0  0
  144.8760  141.1260  101.1070 C   0  0  0  0  0  1  0  0  0  0  0  0
  143.8210  140.5260   98.8790 C   0  0  0  0  0  2  0  0  0  0  0  0
  145.7230  138.0420   98.9830 C   0  0  0  0  0  0  0  0  0  0  0  0
  145.5840  137.8060   97.7950 O   0  0  0  0  0  0  0  0  0  0  0  0
  145.6250  137.0430   99.8860 O   0  0  0  0  0  0  0  0  0  0  0  0
  146.3090  137.2570  100.5560 H   0  0  0  0  0  0  0  0  0  0  0  0
  1  2  1  0  0  0  0
  2  9  1  0  0  0  0
  3  2  2  0  0  0  0
  3  4  1  0  0  0  0
  4  6  1  0  0  0  0
  5  4  2  0  0  0  0
  6 10  1  6  0  0  0
  6  7  1  0  0  0  0
  7  8  1  1  0  0  0
  9  7  1  0  0  0  0
 10 12  1  0  0  0  0
 11 10  2  0  0  0  0
 12 13  1  0  0  0  0
M  END
>  <MODEL>
9

>  <REMARK>
 VINA RESULT:      -4.2      1.579      2.362
  2 active torsions:
  status: ('A' for Active; 'I' for Inactive)
    1  A    between atoms: C_6  and  C_7 
    2  A    between atoms: C_7  and  O_9 

>  <TORSDO>
F 2

$$$$
