../results/processed/lowest_conf/7XP6/docked/b1c.pdbqt
 OpenBabel07252415363D

 16 16  0  0  1  0  0  0  0  0999 V2000
  140.9750  134.2180   97.7140 C   0  0  0  0  0  0  0  0  0  0  0  0
  140.6790  132.8560   97.5380 C   0  0  0  0  0  3  0  0  0  0  0  0
  141.4270  131.8680   98.1850 C   0  0  0  0  0  3  0  0  0  0  0  0
  142.4920  132.2320   99.0180 C   0  0  0  0  0  0  0  0  0  0  0  0
  142.7810  133.5860   99.2160 C   0  0  0  0  0  3  0  0  0  0  0  0
  142.0310  134.5710   98.5670 C   0  0  0  0  0  3  0  0  0  0  0  0
  140.1580  135.2960   97.0270 C   0  0  2  0  0  3  0  0  0  0  0  0
  140.3180  136.6470   97.7260 C   0  0  0  0  0  1  0  0  0  0  0  0
  138.7410  134.9280   96.9760 N   0  0  0  0  0  0  0  0  0  0  0  0
  138.4570  134.5620   97.8830 H   0  0  0  0  0  0  0  0  0  0  0  0
  138.1910  135.7720   96.8220 H   0  0  0  0  0  0  0  0  0  0  0  0
  143.3250  131.2200   99.7260 C   0  0  0  0  0  0  0  0  0  0  0  0
  142.8540  130.6190  100.6850 O   0  0  0  0  0  0  0  0  0  0  0  0
  144.6080  131.0680   99.2440 N   0  0  0  0  0  0  0  0  0  0  0  0
  145.7260  130.0230  100.0530 Cl  0  0  0  0  0  0  0  0  0  0  0  0
  144.9950  131.7290   98.5860 H   0  0  0  0  0  0  0  0  0  0  0  0
  1  6  1  0  0  0  0
  2  1  2  0  0  0  0
  2  3  1  0  0  0  0
  3  4  2  0  0  0  0
  4  5  1  0  0  0  0
  4 12  1  0  0  0  0
  6  5  2  0  0  0  0
  7  1  1  0  0  0  0
  7  8  1  1  0  0  0
  9  7  1  0  0  0  0
  9 10  1  0  0  0  0
 11  9  1  0  0  0  0
 12 13  2  0  0  0  0
 14 12  1  0  0  0  0
 14 15  1  0  0  0  0
 16 14  1  0  0  0  0
M  END
>  <MODEL>
1

>  <REMARK>
 VINA RESULT:      -5.6      0.000      0.000
  3 active torsions:
  status: ('A' for Active; 'I' for Inactive)
    1  A    between atoms: C_2  and  N_3 
    2  A    between atoms: C_2  and  C_4 
    3  A    between atoms: C_7  and  C_10 
       I    between atoms: C_10  and  N_12 

>  <TORSDO>
F 3

$$$$
../results/processed/lowest_conf/7XP6/docked/b1c.pdbqt
 OpenBabel07252415363D

 16 16  0  0  1  0  0  0  0  0999 V2000
  142.1350  142.5840   96.9380 C   0  0  0  0  0  0  0  0  0  0  0  0
  143.3960  143.1650   96.7300 C   0  0  0  0  0  3  0  0  0  0  0  0
  144.5460  142.6170   97.3090 C   0  0  0  0  0  3  0  0  0  0  0  0
  144.4450  141.4770   98.1150 C   0  0  0  0  0  0  0  0  0  0  0  0
  143.1960  140.8790   98.3110 C   0  0  0  0  0  3  0  0  0  0  0  0
  142.0490  141.4290   97.7310 C   0  0  0  0  0  3  0  0  0  0  0  0
  140.8860  143.1640   96.3010 C   0  0  2  0  0  3  0  0  0  0  0  0
  140.7910  142.7890   94.8210 C   0  0  0  0  0  1  0  0  0  0  0  0
  140.8510  144.6200   96.4470 N   0  0  0  0  0  0  0  0  0  0  0  0
  141.1390  145.0530   95.5720 H   0  0  0  0  0  0  0  0  0  0  0  0
  139.8860  144.9080   96.6040 H   0  0  0  0  0  0  0  0  0  0  0  0
  145.6350  140.8570   98.7610 C   0  0  0  0  0  0  0  0  0  0  0  0
  146.7480  141.3260   98.5470 O   0  0  0  0  0  0  0  0  0  0  0  0
  145.3750  139.7520   99.5430 N   0  0  0  0  0  0  0  0  0  0  0  0
  146.6780  138.8540  100.2460 Cl  0  0  0  0  0  0  0  0  0  0  0  0
  144.4720  139.3010   99.5170 H   0  0  0  0  0  0  0  0  0  0  0  0
  1  6  1  0  0  0  0
  2  1  2  0  0  0  0
  2  3  1  0  0  0  0
  3  4  2  0  0  0  0
  4  5  1  0  0  0  0
  4 12  1  0  0  0  0
  6  5  2  0  0  0  0
  7  8  1  6  0  0  0
  7  9  1  0  0  0  0
  7  1  1  0  0  0  0
  9 11  1  0  0  0  0
 10  9  1  0  0  0  0
 12 14  1  0  0  0  0
 13 12  2  0  0  0  0
 14 15  1  0  0  0  0
 16 14  1  0  0  0  0
M  END
>  <MODEL>
2

>  <REMARK>
 VINA RESULT:      -5.5      8.333      9.202
  3 active torsions:
  status: ('A' for Active; 'I' for Inactive)
    1  A    between atoms: C_2  and  N_3 
    2  A    between atoms: C_2  and  C_4 
    3  A    between atoms: C_7  and  C_10 
       I    between atoms: C_10  and  N_12 

>  <TORSDO>
F 3

$$$$
../results/processed/lowest_conf/7XP6/docked/b1c.pdbqt
 OpenBabel07252415363D

 16 16  0  0  1  0  0  0  0  0999 V2000
  146.1990  139.5330   99.7640 C   0  0  0  0  0  0  0  0  0  0  0  0
  145.4490  140.6810  100.0680 C   0  0  0  0  0  3  0  0  0  0  0  0
  145.8300  141.9370   99.5860 C   0  0  0  0  0  3  0  0  0  0  0  0
  146.9780  142.0620   98.7940 C   0  0  0  0  0  0  0  0  0  0  0  0
  147.7190  140.9210   98.4680 C   0  0  0  0  0  3  0  0  0  0  0  0
  147.3350  139.6670   98.9520 C   0  0  0  0  0  3  0  0  0  0  0  0
  145.7830  138.1640  100.2720 C   0  0  2  0  0  3  0  0  0  0  0  0
  146.8050  137.6020  101.2600 C   0  0  0  0  0  1  0  0  0  0  0  0
  145.5980  137.2280   99.1620 N   0  0  0  0  0  0  0  0  0  0  0  0
  146.3610  136.5530   99.1620 H   0  0  0  0  0  0  0  0  0  0  0  0
  144.7450  136.6950   99.3240 H   0  0  0  0  0  0  0  0  0  0  0  0
  147.4320  143.3760   98.2600 C   0  0  0  0  0  0  0  0  0  0  0  0
  146.6730  144.3390   98.3060 O   0  0  0  0  0  0  0  0  0  0  0  0
  148.6960  143.3860   97.7110 N   0  0  0  0  0  0  0  0  0  0  0  0
  149.3000  144.8120   96.9360 Cl  0  0  0  0  0  0  0  0  0  0  0  0
  149.1860  142.5230   97.5250 H   0  0  0  0  0  0  0  0  0  0  0  0
  1  2  1  0  0  0  0
  1  7  1  0  0  0  0
  3  2  2  0  0  0  0
  4  3  1  0  0  0  0
  5  4  2  0  0  0  0
  5  6  1  0  0  0  0
  6  1  2  0  0  0  0
  7  8  1  1  0  0  0
  9 10  1  0  0  0  0
  9 11  1  0  0  0  0
  9  7  1  0  0  0  0
 12 13  2  0  0  0  0
 12  4  1  0  0  0  0
 14 12  1  0  0  0  0
 15 14  1  0  0  0  0
 16 14  1  0  0  0  0
M  END
>  <MODEL>
3

>  <REMARK>
 VINA RESULT:      -5.4      9.515     10.644
  3 active torsions:
  status: ('A' for Active; 'I' for Inactive)
    1  A    between atoms: C_2  and  N_3 
    2  A    between atoms: C_2  and  C_4 
    3  A    between atoms: C_7  and  C_10 
       I    between atoms: C_10  and  N_12 

>  <TORSDO>
F 3

$$$$
../results/processed/lowest_conf/7XP6/docked/b1c.pdbqt
 OpenBabel07252415363D

 16 16  0  0  1  0  0  0  0  0999 V2000
  150.9830  127.2070  102.6320 C   0  0  0  0  0  0  0  0  0  0  0  0
  149.7770  127.9270  102.6270 C   0  0  0  0  0  3  0  0  0  0  0  0
  148.5920  127.3490  103.0910 C   0  0  0  0  0  3  0  0  0  0  0  0
  148.5970  126.0310  103.5650 C   0  0  0  0  0  0  0  0  0  0  0  0
  149.7980  125.3140  103.5940 C   0  0  0  0  0  3  0  0  0  0  0  0
  150.9800  125.8950  103.1280 C   0  0  0  0  0  3  0  0  0  0  0  0
  152.2760  127.8340  102.1430 C   0  0  2  0  0  3  0  0  0  0  0  0
  152.5710  129.1450  102.8730 C   0  0  0  0  0  1  0  0  0  0  0  0
  152.2310  128.0690  100.6990 N   0  0  0  0  0  0  0  0  0  0  0  0
  151.5310  128.7800  100.4960 H   0  0  0  0  0  0  0  0  0  0  0  0
  153.1260  128.4570  100.4040 H   0  0  0  0  0  0  0  0  0  0  0  0
  147.3630  125.3650  104.0650 C   0  0  0  0  0  0  0  0  0  0  0  0
  146.6820  124.7000  103.2920 O   0  0  0  0  0  0  0  0  0  0  0  0
  147.0660  125.5900  105.3930 N   0  0  0  0  0  0  0  0  0  0  0  0
  145.5930  124.9860  106.0720 Cl  0  0  0  0  0  0  0  0  0  0  0  0
  147.5530  126.3030  105.9180 H   0  0  0  0  0  0  0  0  0  0  0  0
  1  6  1  0  0  0  0
  2  1  2  0  0  0  0
  2  3  1  0  0  0  0
  3  4  2  0  0  0  0
  4  5  1  0  0  0  0
  4 12  1  0  0  0  0
  6  5  2  0  0  0  0
  7  1  1  0  0  0  0
  7  8  1  1  0  0  0
  9  7  1  0  0  0  0
 10  9  1  0  0  0  0
 11  9  1  0  0  0  0
 12 14  1  0  0  0  0
 13 12  2  0  0  0  0
 14 16  1  0  0  0  0
 14 15  1  0  0  0  0
M  END
>  <MODEL>
4

>  <REMARK>
 VINA RESULT:      -5.2     10.591     11.693
  3 active torsions:
  status: ('A' for Active; 'I' for Inactive)
    1  A    between atoms: C_2  and  N_3 
    2  A    between atoms: C_2  and  C_4 
    3  A    between atoms: C_7  and  C_10 
       I    between atoms: C_10  and  N_12 

>  <TORSDO>
F 3

$$$$
../results/processed/lowest_conf/7XP6/docked/b1c.pdbqt
 OpenBabel07252415363D

 16 16  0  0  1  0  0  0  0  0999 V2000
  146.3070  140.5910   99.3880 C   0  0  0  0  0  0  0  0  0  0  0  0
  146.0740  141.9690   99.5180 C   0  0  0  0  0  3  0  0  0  0  0  0
  146.9920  142.9040   99.0290 C   0  0  0  0  0  3  0  0  0  0  0  0
  148.1660  142.4660   98.4030 C   0  0  0  0  0  0  0  0  0  0  0  0
  148.3960  141.0950   98.2490 C   0  0  0  0  0  3  0  0  0  0  0  0
  147.4760  140.1650   98.7400 C   0  0  0  0  0  3  0  0  0  0  0  0
  145.3070  139.5720   99.9030 C   0  0  2  0  0  3  0  0  0  0  0  0
  145.9450  138.6390  100.9340 C   0  0  0  0  0  1  0  0  0  0  0  0
  144.7440  138.7870   98.8040 N   0  0  0  0  0  0  0  0  0  0  0  0
  145.2270  139.0250   97.9400 H   0  0  0  0  0  0  0  0  0  0  0  0
  144.9360  137.8010   98.9760 H   0  0  0  0  0  0  0  0  0  0  0  0
  149.1800  143.4180   97.8690 C   0  0  0  0  0  0  0  0  0  0  0  0
  150.3370  143.3510   98.2690 O   0  0  0  0  0  0  0  0  0  0  0  0
  148.7040  144.3440   96.9650 N   0  0  0  0  0  0  0  0  0  0  0  0
  149.7430  145.5910   96.3640 Cl  0  0  0  0  0  0  0  0  0  0  0  0
  147.7110  144.4720   96.8310 H   0  0  0  0  0  0  0  0  0  0  0  0
  1  2  1  0  0  0  0
  1  7  1  0  0  0  0
  3  2  2  0  0  0  0
  4  3  1  0  0  0  0
  5  4  2  0  0  0  0
  5  6  1  0  0  0  0
  6  1  2  0  0  0  0
  7  8  1  1  0  0  0
  9 11  1  0  0  0  0
  9  7  1  0  0  0  0
 10  9  1  0  0  0  0
 12 13  2  0  0  0  0
 12  4  1  0  0  0  0
 14 12  1  0  0  0  0
 15 14  1  0  0  0  0
 16 14  1  0  0  0  0
M  END
>  <MODEL>
5

>  <REMARK>
 VINA RESULT:      -5.2     10.310     11.309
  3 active torsions:
  status: ('A' for Active; 'I' for Inactive)
    1  A    between atoms: C_2  and  N_3 
    2  A    between atoms: C_2  and  C_4 
    3  A    between atoms: C_7  and  C_10 
       I    between atoms: C_10  and  N_12 

>  <TORSDO>
F 3

$$$$
../results/processed/lowest_conf/7XP6/docked/b1c.pdbqt
 OpenBabel07252415363D

 16 16  0  0  1  0  0  0  0  0999 V2000
  150.9000  143.8120   97.6110 C   0  0  0  0  0  0  0  0  0  0  0  0
  150.0270  144.5950   96.8390 C   0  0  0  0  0  3  0  0  0  0  0  0
  148.6410  144.4400   96.9400 C   0  0  0  0  0  3  0  0  0  0  0  0
  148.1070  143.4880   97.8170 C   0  0  0  0  0  0  0  0  0  0  0  0
  148.9680  142.7190   98.6070 C   0  0  0  0  0  3  0  0  0  0  0  0
  150.3530  142.8760   98.5030 C   0  0  0  0  0  3  0  0  0  0  0  0
  152.4040  143.9850   97.5170 C   0  0  2  0  0  3  0  0  0  0  0  0
  153.1010  143.5000   98.7890 C   0  0  0  0  0  1  0  0  0  0  0  0
  152.7560  145.3830   97.2600 N   0  0  0  0  0  0  0  0  0  0  0  0
  152.6690  145.5730   96.2630 H   0  0  0  0  0  0  0  0  0  0  0  0
  152.0750  145.9810   97.7260 H   0  0  0  0  0  0  0  0  0  0  0  0
  146.6400  143.2780   97.9600 C   0  0  0  0  0  0  0  0  0  0  0  0
  146.2140  142.6390   98.9160 O   0  0  0  0  0  0  0  0  0  0  0  0
  145.8650  143.8110   96.9510 N   0  0  0  0  0  0  0  0  0  0  0  0
  144.1570  143.5300   96.9210 Cl  0  0  0  0  0  0  0  0  0  0  0  0
  146.2880  144.1490   96.0990 H   0  0  0  0  0  0  0  0  0  0  0  0
  1  6  1  0  0  0  0
  2  3  1  0  0  0  0
  2  1  2  0  0  0  0
  3  4  2  0  0  0  0
  4 12  1  0  0  0  0
  4  5  1  0  0  0  0
  6  5  2  0  0  0  0
  7  1  1  0  0  0  0
  7  8  1  1  0  0  0
  9  7  1  0  0  0  0
  9 11  1  0  0  0  0
 10  9  1  0  0  0  0
 12 13  2  0  0  0  0
 14 12  1  0  0  0  0
 15 14  1  0  0  0  0
 16 14  1  0  0  0  0
M  END
>  <MODEL>
6

>  <REMARK>
 VINA RESULT:      -5.1     12.565     13.793
  3 active torsions:
  status: ('A' for Active; 'I' for Inactive)
    1  A    between atoms: C_2  and  N_3 
    2  A    between atoms: C_2  and  C_4 
    3  A    between atoms: C_7  and  C_10 
       I    between atoms: C_10  and  N_12 

>  <TORSDO>
F 3

$$$$
../results/processed/lowest_conf/7XP6/docked/b1c.pdbqt
 OpenBabel07252415363D

 16 16  0  0  1  0  0  0  0  0999 V2000
  146.7460  141.0630   98.6370 C   0  0  0  0  0  0  0  0  0  0  0  0
  146.7780  142.4590   98.7820 C   0  0  0  0  0  3  0  0  0  0  0  0
  147.9740  143.1700   98.6420 C   0  0  0  0  0  3  0  0  0  0  0  0
  149.1630  142.4860   98.3600 C   0  0  0  0  0  0  0  0  0  0  0  0
  149.1370  141.0980   98.1920 C   0  0  0  0  0  3  0  0  0  0  0  0
  147.9400  140.3910   98.3340 C   0  0  0  0  0  3  0  0  0  0  0  0
  145.4490  140.2870   98.7730 C   0  0  2  0  0  3  0  0  0  0  0  0
  144.2390  141.1670   98.4590 C   0  0  0  0  0  1  0  0  0  0  0  0
  145.3160  139.7200  100.1160 N   0  0  0  0  0  0  0  0  0  0  0  0
  146.0270  140.1230  100.7230 H   0  0  0  0  0  0  0  0  0  0  0  0
  144.4160  140.0040  100.5010 H   0  0  0  0  0  0  0  0  0  0  0  0
  150.4650  143.1930   98.2070 C   0  0  0  0  0  0  0  0  0  0  0  0
  150.5760  144.0730   97.3590 O   0  0  0  0  0  0  0  0  0  0  0  0
  151.4760  142.7580   99.0380 N   0  0  0  0  0  0  0  0  0  0  0  0
  153.0750  143.4010   98.8770 Cl  0  0  0  0  0  0  0  0  0  0  0  0
  151.3770  141.9040   99.5680 H   0  0  0  0  0  0  0  0  0  0  0  0
  1  7  1  0  0  0  0
  1  2  1  0  0  0  0
  3  2  2  0  0  0  0
  4  3  1  0  0  0  0
  5  6  1  0  0  0  0
  5  4  2  0  0  0  0
  6  1  2  0  0  0  0
  7  8  1  1  0  0  0
  7  9  1  0  0  0  0
  9 11  1  0  0  0  0
  9 10  1  0  0  0  0
 12  4  1  0  0  0  0
 12 14  1  0  0  0  0
 13 12  2  0  0  0  0
 14 16  1  0  0  0  0
 15 14  1  0  0  0  0
M  END
>  <MODEL>
7

>  <REMARK>
 VINA RESULT:      -4.9     10.683     11.551
  3 active torsions:
  status: ('A' for Active; 'I' for Inactive)
    1  A    between atoms: C_2  and  N_3 
    2  A    between atoms: C_2  and  C_4 
    3  A    between atoms: C_7  and  C_10 
       I    between atoms: C_10  and  N_12 

>  <TORSDO>
F 3

$$$$
../results/processed/lowest_conf/7XP6/docked/b1c.pdbqt
 OpenBabel07252415363D

 16 16  0  0  1  0  0  0  0  0999 V2000
  149.0180  142.3980   98.1100 C   0  0  0  0  0  0  0  0  0  0  0  0
  148.6490  141.0430   98.1120 C   0  0  0  0  0  3  0  0  0  0  0  0
  147.3690  140.6460   98.5100 C   0  0  0  0  0  3  0  0  0  0  0  0
  146.4370  141.6070   98.9190 C   0  0  0  0  0  0  0  0  0  0  0  0
  146.7870  142.9610   98.9000 C   0  0  0  0  0  3  0  0  0  0  0  0
  148.0690  143.3540   98.5020 C   0  0  0  0  0  3  0  0  0  0  0  0
  150.4010  142.8370   97.6660 C   0  0  2  0  0  3  0  0  0  0  0  0
  151.3720  142.8990   98.8460 C   0  0  0  0  0  1  0  0  0  0  0  0
  150.3490  144.1380   96.9960 N   0  0  0  0  0  0  0  0  0  0  0  0
  151.0860  144.1850   96.2960 H   0  0  0  0  0  0  0  0  0  0  0  0
  149.4680  144.2070   96.4890 H   0  0  0  0  0  0  0  0  0  0  0  0
  145.0620  141.2390   99.3580 C   0  0  0  0  0  0  0  0  0  0  0  0
  144.8560  140.9790  100.5390 O   0  0  0  0  0  0  0  0  0  0  0  0
  144.1150  141.1900   98.3570 N   0  0  0  0  0  0  0  0  0  0  0  0
  142.5070  140.6500   98.7020 Cl  0  0  0  0  0  0  0  0  0  0  0  0
  144.3880  141.2200   97.3850 H   0  0  0  0  0  0  0  0  0  0  0  0
  1  2  2  0  0  0  0
  1  6  1  0  0  0  0
  2  3  1  0  0  0  0
  3  4  2  0  0  0  0
  4 12  1  0  0  0  0
  5  4  1  0  0  0  0
  6  5  2  0  0  0  0
  7  1  1  0  0  0  0
  7  8  1  1  0  0  0
  9  7  1  0  0  0  0
 10  9  1  0  0  0  0
 11  9  1  0  0  0  0
 12 13  2  0  0  0  0
 14 15  1  0  0  0  0
 14 12  1  0  0  0  0
 16 14  1  0  0  0  0
M  END
>  <MODEL>
8

>  <REMARK>
 VINA RESULT:      -4.9     10.265     11.382
  3 active torsions:
  status: ('A' for Active; 'I' for Inactive)
    1  A    between atoms: C_2  and  N_3 
    2  A    between atoms: C_2  and  C_4 
    3  A    between atoms: C_7  and  C_10 
       I    between atoms: C_10  and  N_12 

>  <TORSDO>
F 3

$$$$
../results/processed/lowest_conf/7XP6/docked/b1c.pdbqt
 OpenBabel07252415363D

 16 16  0  0  1  0  0  0  0  0999 V2000
  144.2990  136.9190   98.7670 C   0  0  0  0  0  0  0  0  0  0  0  0
  143.5180  138.0040   98.3340 C   0  0  0  0  0  3  0  0  0  0  0  0
  143.8720  139.3180   98.6540 C   0  0  0  0  0  3  0  0  0  0  0  0
  145.0160  139.5650   99.4220 C   0  0  0  0  0  0  0  0  0  0  0  0
  145.8120  138.4930   99.8400 C   0  0  0  0  0  3  0  0  0  0  0  0
  145.4540  137.1800   99.5190 C   0  0  0  0  0  3  0  0  0  0  0  0
  143.9280  135.4920   98.4110 C   0  0  2  0  0  3  0  0  0  0  0  0
  142.6420  135.0580   99.1140 C   0  0  0  0  0  1  0  0  0  0  0  0
  145.0140  134.5690   98.7470 N   0  0  0  0  0  0  0  0  0  0  0  0
  144.6180  133.6860   99.0640 H   0  0  0  0  0  0  0  0  0  0  0  0
  145.5380  134.3590   97.8990 H   0  0  0  0  0  0  0  0  0  0  0  0
  145.4350  140.9440   99.7970 C   0  0  0  0  0  0  0  0  0  0  0  0
  144.9370  141.4780  100.7820 O   0  0  0  0  0  0  0  0  0  0  0  0
  146.3540  141.5330   98.9540 N   0  0  0  0  0  0  0  0  0  0  0  0
  146.8300  143.1800   99.1940 Cl  0  0  0  0  0  0  0  0  0  0  0  0
  146.5710  141.1210   98.0580 H   0  0  0  0  0  0  0  0  0  0  0  0
  1  6  1  0  0  0  0
  2  3  1  0  0  0  0
  2  1  2  0  0  0  0
  3  4  2  0  0  0  0
  4 12  1  0  0  0  0
  4  5  1  0  0  0  0
  6  5  2  0  0  0  0
  7  9  1  0  0  0  0
  7  1  1  0  0  0  0
  7  8  1  1  0  0  0
  9 10  1  0  0  0  0
 11  9  1  0  0  0  0
 12 13  2  0  0  0  0
 14 15  1  0  0  0  0
 14 12  1  0  0  0  0
 16 14  1  0  0  0  0
M  END
>  <MODEL>
9

>  <REMARK>
 VINA RESULT:      -4.9      6.781      7.881
  3 active torsions:
  status: ('A' for Active; 'I' for Inactive)
    1  A    between atoms: C_2  and  N_3 
    2  A    between atoms: C_2  and  C_4 
    3  A    between atoms: C_7  and  C_10 
       I    between atoms: C_10  and  N_12 

>  <TORSDO>
F 3

$$$$
