../results/processed/lowest_conf/7XP6/docked/b2.pdbqt
 OpenBabel07252415363D

 12 12  0  0  0  0  0  0  0  0999 V2000
  141.8770  139.6670  107.1820 C   0  0  0  0  0  3  0  0  0  0  0  0
  140.6300  140.1760  106.8260 C   0  0  0  0  0  3  0  0  0  0  0  0
  139.4720  139.6550  107.4050 C   0  0  0  0  0  3  0  0  0  0  0  0
  139.5600  138.6260  108.3520 C   0  0  0  0  0  0  0  0  0  0  0  0
  140.8150  138.1060  108.6960 C   0  0  0  0  0  3  0  0  0  0  0  0
  141.9710  138.6320  108.1120 C   0  0  0  0  0  3  0  0  0  0  0  0
  138.2990  138.1030  108.9450 C   0  0  0  0  0  0  0  0  0  0  0  0
  137.3400  137.7940  108.2420 O   0  0  0  0  0  0  0  0  0  0  0  0
  138.2420  138.0380  110.3220 N   0  0  0  0  0  0  0  0  0  0  0  0
  138.8200  138.6350  110.9030 H   0  0  0  0  0  0  0  0  0  0  0  0
  136.9550  137.7450  110.8410 O   0  0  0  0  0  0  0  0  0  0  0  0
  137.0280  138.0630  111.7690 H   0  0  0  0  0  0  0  0  0  0  0  0
  1  6  1  0  0  0  0
  2  1  2  0  0  0  0
  2  3  1  0  0  0  0
  3  4  2  0  0  0  0
  4  5  1  0  0  0  0
  4  7  1  0  0  0  0
  6  5  2  0  0  0  0
  7  9  1  0  0  0  0
  8  7  2  0  0  0  0
  9 11  1  0  0  0  0
  9 10  1  0  0  0  0
 11 12  1  0  0  0  0
M  END
>  <MODEL>
1

>  <REMARK>
 VINA RESULT:      -5.6      0.000      0.000
  2 active torsions:
  status: ('A' for Active; 'I' for Inactive)
    1  A    between atoms: C_4  and  C_7 
       I    between atoms: C_7  and  N_9 
    2  A    between atoms: N_9  and  O_10 

>  <TORSDO>
F 2

$$$$
../results/processed/lowest_conf/7XP6/docked/b2.pdbqt
 OpenBabel07252415363D

 12 12  0  0  0  0  0  0  0  0999 V2000
  133.9150  128.5060   92.3730 C   0  0  0  0  0  3  0  0  0  0  0  0
  134.2140  129.8470   92.6080 C   0  0  0  0  0  3  0  0  0  0  0  0
  134.3630  130.3090   93.9170 C   0  0  0  0  0  3  0  0  0  0  0  0
  134.2220  129.4260   94.9960 C   0  0  0  0  0  0  0  0  0  0  0  0
  133.9080  128.0820   94.7550 C   0  0  0  0  0  3  0  0  0  0  0  0
  133.7580  127.6250   93.4420 C   0  0  0  0  0  3  0  0  0  0  0  0
  134.3930  129.9620   96.3730 C   0  0  0  0  0  0  0  0  0  0  0  0
  135.1520  129.4300   97.1800 O   0  0  0  0  0  0  0  0  0  0  0  0
  133.6150  131.0500   96.7160 N   0  0  0  0  0  0  0  0  0  0  0  0
  132.7370  131.2400   96.2440 H   0  0  0  0  0  0  0  0  0  0  0  0
  133.6500  131.3830   98.0940 O   0  0  0  0  0  0  0  0  0  0  0  0
  133.4550  130.5180   98.5220 H   0  0  0  0  0  0  0  0  0  0  0  0
  1  2  2  0  0  0  0
  1  6  1  0  0  0  0
  2  3  1  0  0  0  0
  3  4  2  0  0  0  0
  4  7  1  0  0  0  0
  5  4  1  0  0  0  0
  6  5  2  0  0  0  0
  7  9  1  0  0  0  0
  7  8  2  0  0  0  0
  9 11  1  0  0  0  0
 10  9  1  0  0  0  0
 11 12  1  0  0  0  0
M  END
>  <MODEL>
2

>  <REMARK>
 VINA RESULT:      -5.4     16.873     17.310
  2 active torsions:
  status: ('A' for Active; 'I' for Inactive)
    1  A    between atoms: C_4  and  C_7 
       I    between atoms: C_7  and  N_9 
    2  A    between atoms: N_9  and  O_10 

>  <TORSDO>
F 2

$$$$
../results/processed/lowest_conf/7XP6/docked/b2.pdbqt
 OpenBabel07252415363D

 12 12  0  0  0  0  0  0  0  0999 V2000
  146.8550  142.1790   98.8170 C   0  0  0  0  0  3  0  0  0  0  0  0
  147.7260  141.1620   98.4300 C   0  0  0  0  0  3  0  0  0  0  0  0
  147.5150  139.8560   98.8750 C   0  0  0  0  0  3  0  0  0  0  0  0
  146.4250  139.5610   99.7040 C   0  0  0  0  0  0  0  0  0  0  0  0
  145.5600  140.5890  100.1030 C   0  0  0  0  0  3  0  0  0  0  0  0
  145.7760  141.8960   99.6540 C   0  0  0  0  0  3  0  0  0  0  0  0
  146.2390  138.1550  100.1520 C   0  0  0  0  0  0  0  0  0  0  0  0
  146.8120  137.7170  101.1460 O   0  0  0  0  0  0  0  0  0  0  0  0
  145.4380  137.3530   99.3640 N   0  0  0  0  0  0  0  0  0  0  0  0
  145.2970  137.5540   98.3790 H   0  0  0  0  0  0  0  0  0  0  0  0
  145.4690  135.9780   99.7060 O   0  0  0  0  0  0  0  0  0  0  0  0
  144.8630  135.5840   99.0390 H   0  0  0  0  0  0  0  0  0  0  0  0
  1  6  1  0  0  0  0
  2  1  2  0  0  0  0
  2  3  1  0  0  0  0
  3  4  2  0  0  0  0
  4  5  1  0  0  0  0
  4  7  1  0  0  0  0
  6  5  2  0  0  0  0
  7  8  2  0  0  0  0
  9 11  1  0  0  0  0
  9  7  1  0  0  0  0
 10  9  1  0  0  0  0
 12 11  1  0  0  0  0
M  END
>  <MODEL>
3

>  <REMARK>
 VINA RESULT:      -5.0     10.758     11.553
  2 active torsions:
  status: ('A' for Active; 'I' for Inactive)
    1  A    between atoms: C_4  and  C_7 
       I    between atoms: C_7  and  N_9 
    2  A    between atoms: N_9  and  O_10 

>  <TORSDO>
F 2

$$$$
../results/processed/lowest_conf/7XP6/docked/b2.pdbqt
 OpenBabel07252415363D

 12 12  0  0  0  0  0  0  0  0999 V2000
  141.6410  138.0210  110.3900 C   0  0  0  0  0  3  0  0  0  0  0  0
  141.7860  138.3700  109.0480 C   0  0  0  0  0  3  0  0  0  0  0  0
  140.6610  138.4710  108.2280 C   0  0  0  0  0  3  0  0  0  0  0  0
  139.3840  138.2330  108.7530 C   0  0  0  0  0  0  0  0  0  0  0  0
  139.2440  137.8690  110.0990 C   0  0  0  0  0  3  0  0  0  0  0  0
  140.3740  137.7680  110.9150 C   0  0  0  0  0  3  0  0  0  0  0  0
  138.2130  138.3550  107.8420 C   0  0  0  0  0  0  0  0  0  0  0  0
  137.3950  137.4460  107.7230 O   0  0  0  0  0  0  0  0  0  0  0  0
  138.1250  139.5130  107.0970 N   0  0  0  0  0  0  0  0  0  0  0  0
  138.9490  140.0630  106.8770 H   0  0  0  0  0  0  0  0  0  0  0  0
  137.1250  139.4880  106.0920 O   0  0  0  0  0  0  0  0  0  0  0  0
  136.3010  139.3920  106.6220 H   0  0  0  0  0  0  0  0  0  0  0  0
  1  6  1  0  0  0  0
  2  1  2  0  0  0  0
  3  4  2  0  0  0  0
  3  2  1  0  0  0  0
  4  5  1  0  0  0  0
  5  6  2  0  0  0  0
  7  4  1  0  0  0  0
  8  7  2  0  0  0  0
  9  7  1  0  0  0  0
 10  9  1  0  0  0  0
 11 12  1  0  0  0  0
 11  9  1  0  0  0  0
M  END
>  <MODEL>
4

>  <REMARK>
 VINA RESULT:      -4.9      1.956      2.863
  2 active torsions:
  status: ('A' for Active; 'I' for Inactive)
    1  A    between atoms: C_4  and  C_7 
       I    between atoms: C_7  and  N_9 
    2  A    between atoms: N_9  and  O_10 

>  <TORSDO>
F 2

$$$$
../results/processed/lowest_conf/7XP6/docked/b2.pdbqt
 OpenBabel07252415363D

 12 12  0  0  0  0  0  0  0  0999 V2000
  149.5260  149.0850  110.2840 C   0  0  0  0  0  3  0  0  0  0  0  0
  148.2010  149.1050  110.7170 C   0  0  0  0  0  3  0  0  0  0  0  0
  147.7990  148.2830  111.7710 C   0  0  0  0  0  3  0  0  0  0  0  0
  148.7270  147.4440  112.4030 C   0  0  0  0  0  0  0  0  0  0  0  0
  150.0540  147.4160  111.9550 C   0  0  0  0  0  3  0  0  0  0  0  0
  150.4510  148.2410  110.8980 C   0  0  0  0  0  3  0  0  0  0  0  0
  148.2540  146.5870  113.5240 C   0  0  0  0  0  0  0  0  0  0  0  0
  147.4980  147.0220  114.3890 O   0  0  0  0  0  0  0  0  0  0  0  0
  148.7500  145.3000  113.5730 N   0  0  0  0  0  0  0  0  0  0  0  0
  149.6360  145.0590  113.1410 H   0  0  0  0  0  0  0  0  0  0  0  0
  148.4460  144.6020  114.7690 O   0  0  0  0  0  0  0  0  0  0  0  0
  149.3320  144.5140  115.1890 H   0  0  0  0  0  0  0  0  0  0  0  0
  1  2  2  0  0  0  0
  1  6  1  0  0  0  0
  2  3  1  0  0  0  0
  3  4  2  0  0  0  0
  4  7  1  0  0  0  0
  5  4  1  0  0  0  0
  6  5  2  0  0  0  0
  7  9  1  0  0  0  0
  7  8  2  0  0  0  0
  9 11  1  0  0  0  0
 10  9  1  0  0  0  0
 11 12  1  0  0  0  0
M  END
>  <MODEL>
5

>  <REMARK>
 VINA RESULT:      -4.7     12.860     13.384
  2 active torsions:
  status: ('A' for Active; 'I' for Inactive)
    1  A    between atoms: C_4  and  C_7 
       I    between atoms: C_7  and  N_9 
    2  A    between atoms: N_9  and  O_10 

>  <TORSDO>
F 2

$$$$
../results/processed/lowest_conf/7XP6/docked/b2.pdbqt
 OpenBabel07252415363D

 12 12  0  0  0  0  0  0  0  0999 V2000
  143.7060  140.6100   98.6890 C   0  0  0  0  0  3  0  0  0  0  0  0
  142.3160  140.5360   98.6180 C   0  0  0  0  0  3  0  0  0  0  0  0
  141.6130  141.4090   97.7840 C   0  0  0  0  0  3  0  0  0  0  0  0
  142.3020  142.3520   97.0110 C   0  0  0  0  0  0  0  0  0  0  0  0
  143.6980  142.4320   97.0960 C   0  0  0  0  0  3  0  0  0  0  0  0
  144.3970  141.5570   97.9330 C   0  0  0  0  0  3  0  0  0  0  0  0
  141.5110  143.2580   96.1350 C   0  0  0  0  0  0  0  0  0  0  0  0
  140.7140  144.0680   96.6030 O   0  0  0  0  0  0  0  0  0  0  0  0
  141.6760  143.1050   94.7730 N   0  0  0  0  0  0  0  0  0  0  0  0
  141.9900  142.2260   94.3760 H   0  0  0  0  0  0  0  0  0  0  0  0
  140.7460  143.8310   93.9860 O   0  0  0  0  0  0  0  0  0  0  0  0
  141.1780  144.7130   93.9170 H   0  0  0  0  0  0  0  0  0  0  0  0
  2  1  1  0  0  0  0
  3  2  2  0  0  0  0
  4  5  2  0  0  0  0
  4  3  1  0  0  0  0
  5  6  1  0  0  0  0
  6  1  2  0  0  0  0
  7  8  2  0  0  0  0
  7  4  1  0  0  0  0
  9  7  1  0  0  0  0
 10  9  1  0  0  0  0
 11  9  1  0  0  0  0
 12 11  1  0  0  0  0
M  END
>  <MODEL>
6

>  <REMARK>
 VINA RESULT:      -4.7     11.796     12.956
  2 active torsions:
  status: ('A' for Active; 'I' for Inactive)
    1  A    between atoms: C_4  and  C_7 
       I    between atoms: C_7  and  N_9 
    2  A    between atoms: N_9  and  O_10 

>  <TORSDO>
F 2

$$$$
../results/processed/lowest_conf/7XP6/docked/b2.pdbqt
 OpenBabel07252415363D

 12 12  0  0  0  0  0  0  0  0999 V2000
  148.8510  143.7840   97.3970 C   0  0  0  0  0  3  0  0  0  0  0  0
  149.7960  144.5430   96.7100 C   0  0  0  0  0  3  0  0  0  0  0  0
  151.1470  144.4460   97.0470 C   0  0  0  0  0  3  0  0  0  0  0  0
  151.5580  143.5790   98.0680 C   0  0  0  0  0  0  0  0  0  0  0  0
  150.6020  142.8290   98.7660 C   0  0  0  0  0  3  0  0  0  0  0  0
  149.2500  142.9300   98.4250 C   0  0  0  0  0  3  0  0  0  0  0  0
  153.0090  143.5070   98.3910 C   0  0  0  0  0  0  0  0  0  0  0  0
  153.8650  143.8330   97.5720 O   0  0  0  0  0  0  0  0  0  0  0  0
  153.3440  143.0030   99.6320 N   0  0  0  0  0  0  0  0  0  0  0  0
  152.7210  142.3810  100.1340 H   0  0  0  0  0  0  0  0  0  0  0  0
  154.7280  142.7500   99.8050 O   0  0  0  0  0  0  0  0  0  0  0  0
  155.0860  142.9310   98.9070 H   0  0  0  0  0  0  0  0  0  0  0  0
  1  6  1  0  0  0  0
  2  3  1  0  0  0  0
  2  1  2  0  0  0  0
  3  4  2  0  0  0  0
  4  7  1  0  0  0  0
  4  5  1  0  0  0  0
  6  5  2  0  0  0  0
  7  9  1  0  0  0  0
  8  7  2  0  0  0  0
  9 11  1  0  0  0  0
  9 10  1  0  0  0  0
 12 11  1  0  0  0  0
M  END
>  <MODEL>
7

>  <REMARK>
 VINA RESULT:      -4.7     15.934     17.028
  2 active torsions:
  status: ('A' for Active; 'I' for Inactive)
    1  A    between atoms: C_4  and  C_7 
       I    between atoms: C_7  and  N_9 
    2  A    between atoms: N_9  and  O_10 

>  <TORSDO>
F 2

$$$$
../results/processed/lowest_conf/7XP6/docked/b2.pdbqt
 OpenBabel07252415363D

 12 12  0  0  0  0  0  0  0  0999 V2000
  148.6190  125.9120  103.5880 C   0  0  0  0  0  3  0  0  0  0  0  0
  149.9260  125.4330  103.6470 C   0  0  0  0  0  3  0  0  0  0  0  0
  150.9880  126.2550  103.2630 C   0  0  0  0  0  3  0  0  0  0  0  0
  150.7430  127.5640  102.8260 C   0  0  0  0  0  0  0  0  0  0  0  0
  149.4260  128.0360  102.7550 C   0  0  0  0  0  3  0  0  0  0  0  0
  148.3660  127.2080  103.1400 C   0  0  0  0  0  3  0  0  0  0  0  0
  151.9050  128.4040  102.4290 C   0  0  0  0  0  0  0  0  0  0  0  0
  152.4550  129.1580  103.2290 O   0  0  0  0  0  0  0  0  0  0  0  0
  152.2970  128.3360  101.1080 N   0  0  0  0  0  0  0  0  0  0  0  0
  151.6490  128.0590  100.3790 H   0  0  0  0  0  0  0  0  0  0  0  0
  153.2570  129.3090  100.7310 O   0  0  0  0  0  0  0  0  0  0  0  0
  153.4190  129.0870   99.7870 H   0  0  0  0  0  0  0  0  0  0  0  0
  1  2  1  0  0  0  0
  3  2  2  0  0  0  0
  4  3  1  0  0  0  0
  5  4  2  0  0  0  0
  5  6  1  0  0  0  0
  6  1  2  0  0  0  0
  7  4  1  0  0  0  0
  7  8  2  0  0  0  0
  9  7  1  0  0  0  0
 10  9  1  0  0  0  0
 11  9  1  0  0  0  0
 12 11  1  0  0  0  0
M  END
>  <MODEL>
8

>  <REMARK>
 VINA RESULT:      -4.6     16.383     17.439
  2 active torsions:
  status: ('A' for Active; 'I' for Inactive)
    1  A    between atoms: C_4  and  C_7 
       I    between atoms: C_7  and  N_9 
    2  A    between atoms: N_9  and  O_10 

>  <TORSDO>
F 2

$$$$
../results/processed/lowest_conf/7XP6/docked/b2.pdbqt
 OpenBabel07252415363D

 12 12  0  0  0  0  0  0  0  0999 V2000
  148.0790  143.0280   98.3880 C   0  0  0  0  0  3  0  0  0  0  0  0
  146.8050  143.0430   98.9520 C   0  0  0  0  0  3  0  0  0  0  0  0
  146.1870  141.8430   99.3100 C   0  0  0  0  0  3  0  0  0  0  0  0
  146.8490  140.6240   99.1120 C   0  0  0  0  0  0  0  0  0  0  0  0
  148.1240  140.6130   98.5310 C   0  0  0  0  0  3  0  0  0  0  0  0
  148.7370  141.8180   98.1740 C   0  0  0  0  0  3  0  0  0  0  0  0
  146.1530  139.3710   99.5110 C   0  0  0  0  0  0  0  0  0  0  0  0
  144.9420  139.2320   99.3560 O   0  0  0  0  0  0  0  0  0  0  0  0
  146.9240  138.3980  100.1150 N   0  0  0  0  0  0  0  0  0  0  0  0
  147.7820  138.6320  100.6010 H   0  0  0  0  0  0  0  0  0  0  0  0
  146.1810  137.3250  100.6710 O   0  0  0  0  0  0  0  0  0  0  0  0
  146.7960  136.5660  100.5550 H   0  0  0  0  0  0  0  0  0  0  0  0
  1  2  1  0  0  0  0
  2  3  2  0  0  0  0
  4  3  1  0  0  0  0
  4  7  1  0  0  0  0
  5  4  2  0  0  0  0
  6  1  2  0  0  0  0
  6  5  1  0  0  0  0
  7  9  1  0  0  0  0
  8  7  2  0  0  0  0
  9 10  1  0  0  0  0
  9 11  1  0  0  0  0
 12 11  1  0  0  0  0
M  END
>  <MODEL>
9

>  <REMARK>
 VINA RESULT:      -4.6     11.198     12.127
  2 active torsions:
  status: ('A' for Active; 'I' for Inactive)
    1  A    between atoms: C_4  and  C_7 
       I    between atoms: C_7  and  N_9 
    2  A    between atoms: N_9  and  O_10 

>  <TORSDO>
F 2

$$$$
