../results/processed/lowest_conf/7XP6/docked/b2c.pdbqt
 OpenBabel07252415363D

 14 14  0  0  1  0  0  0  0  0999 V2000
  145.3280  139.3400   98.5330 S   0  0  0  0  0  0  0  0  0  0  0  0
  144.0630  139.8180   99.0650 O   0  0  0  0  0  0  0  0  0  0  0  0
  145.3790  138.7500   97.2070 O   0  0  0  0  0  0  0  0  0  0  0  0
  146.0410  138.1300   99.7180 C   0  0  1  0  0  3  0  0  0  0  0  0
  145.9670  138.6560  101.1480 C   0  0  0  0  0  1  0  0  0  0  0  0
  145.4260  136.7690   99.6890 N   0  0  0  0  0  0  0  0  0  0  0  0
  144.4770  136.8650   99.3200 H   0  0  0  0  0  0  0  0  0  0  0  0
  145.9230  136.2260   98.9760 H   0  0  0  0  0  0  0  0  0  0  0  0
  146.4790  140.6940   98.5430 C   0  0  0  0  0  0  0  0  0  0  0  0
  146.0630  141.9380   99.0250 C   0  0  0  0  0  3  0  0  0  0  0  0
  146.9650  143.0010   99.0410 C   0  0  0  0  0  3  0  0  0  0  0  0
  148.2720  142.8160   98.5880 C   0  0  0  0  0  3  0  0  0  0  0  0
  148.6870  141.5660   98.1260 C   0  0  0  0  0  3  0  0  0  0  0  0
  147.7920  140.4960   98.1070 C   0  0  0  0  0  3  0  0  0  0  0  0
  1  9  1  0  0  0  0
  1  2  2  0  0  0  0
  1  4  1  0  0  0  0
  3  1  2  0  0  0  0
  4  5  1  1  0  0  0
  6  4  1  0  0  0  0
  7  6  1  0  0  0  0
  8  6  1  0  0  0  0
  9 10  1  0  0  0  0
 10 11  2  0  0  0  0
 12 11  1  0  0  0  0
 13 12  2  0  0  0  0
 14 13  1  0  0  0  0
 14  9  2  0  0  0  0
M  END
>  <MODEL>
1

>  <REMARK>
 VINA RESULT:      -4.8      0.000      0.000
  3 active torsions:
  status: ('A' for Active; 'I' for Inactive)
    1  A    between atoms: C_2  and  N_3 
    2  A    between atoms: C_2  and  S_4 
    3  A    between atoms: S_4  and  C_7 

>  <TORSDO>
F 3

$$$$
../results/processed/lowest_conf/7XP6/docked/b2c.pdbqt
 OpenBabel07252415363D

 14 14  0  0  1  0  0  0  0  0999 V2000
  147.9770  141.4710   97.5710 S   0  0  0  0  0  0  0  0  0  0  0  0
  149.1200  140.5890   97.4080 O   0  0  0  0  0  0  0  0  0  0  0  0
  147.1010  141.7360   96.4430 O   0  0  0  0  0  0  0  0  0  0  0  0
  148.5710  143.0860   98.2160 C   0  0  1  0  0  3  0  0  0  0  0  0
  150.0540  143.0210   98.5700 C   0  0  0  0  0  1  0  0  0  0  0  0
  148.3590  144.2530   97.3080 N   0  0  0  0  0  0  0  0  0  0  0  0
  147.8860  144.9830   97.8460 H   0  0  0  0  0  0  0  0  0  0  0  0
  149.2820  144.6480   97.1010 H   0  0  0  0  0  0  0  0  0  0  0  0
  146.9600  140.8250   98.8760 C   0  0  0  0  0  0  0  0  0  0  0  0
  145.9420  141.6230   99.4060 C   0  0  0  0  0  3  0  0  0  0  0  0
  145.1370  141.1180  100.4260 C   0  0  0  0  0  3  0  0  0  0  0  0
  145.3430  139.8220  100.9020 C   0  0  0  0  0  3  0  0  0  0  0  0
  146.3480  139.0230  100.3550 C   0  0  0  0  0  3  0  0  0  0  0  0
  147.1580  139.5200   99.3340 C   0  0  0  0  0  3  0  0  0  0  0  0
  1  4  1  0  0  0  0
  1  9  1  0  0  0  0
  2  1  2  0  0  0  0
  3  1  2  0  0  0  0
  4  5  1  6  0  0  0
  6  7  1  0  0  0  0
  6  4  1  0  0  0  0
  8  6  1  0  0  0  0
  9 14  2  0  0  0  0
  9 10  1  0  0  0  0
 10 11  2  0  0  0  0
 11 12  1  0  0  0  0
 13 12  2  0  0  0  0
 14 13  1  0  0  0  0
M  END
>  <MODEL>
2

>  <REMARK>
 VINA RESULT:      -4.7      3.233      4.581
  3 active torsions:
  status: ('A' for Active; 'I' for Inactive)
    1  A    between atoms: C_2  and  N_3 
    2  A    between atoms: C_2  and  S_4 
    3  A    between atoms: S_4  and  C_7 

>  <TORSDO>
F 3

$$$$
../results/processed/lowest_conf/7XP6/docked/b2c.pdbqt
 OpenBabel07252415363D

 14 14  0  0  1  0  0  0  0  0999 V2000
  144.2880  136.9780   97.7820 S   0  0  0  0  0  0  0  0  0  0  0  0
  142.9180  137.1080   97.3140 O   0  0  0  0  0  0  0  0  0  0  0  0
  145.3720  136.8560   96.8230 O   0  0  0  0  0  0  0  0  0  0  0  0
  144.3820  135.5430   98.9260 C   0  0  1  0  0  3  0  0  0  0  0  0
  142.9900  135.0040   99.2430 C   0  0  0  0  0  1  0  0  0  0  0  0
  145.2260  134.4040   98.4540 N   0  0  0  0  0  0  0  0  0  0  0  0
  145.9100  134.2000   99.1870 H   0  0  0  0  0  0  0  0  0  0  0  0
  144.6270  133.5730   98.4270 H   0  0  0  0  0  0  0  0  0  0  0  0
  144.6580  138.3810   98.8070 C   0  0  0  0  0  0  0  0  0  0  0  0
  144.0000  139.5910   98.5700 C   0  0  0  0  0  3  0  0  0  0  0  0
  144.2830  140.6930   99.3760 C   0  0  0  0  0  3  0  0  0  0  0  0
  145.2070  140.5790  100.4160 C   0  0  0  0  0  3  0  0  0  0  0  0
  145.8450  139.3620  100.6610 C   0  0  0  0  0  3  0  0  0  0  0  0
  145.5690  138.2550   99.8590 C   0  0  0  0  0  3  0  0  0  0  0  0
  1  9  1  0  0  0  0
  1  4  1  0  0  0  0
  2  1  2  0  0  0  0
  3  1  2  0  0  0  0
  4  5  1  6  0  0  0
  6  4  1  0  0  0  0
  6  7  1  0  0  0  0
  8  6  1  0  0  0  0
  9 14  1  0  0  0  0
 10  9  2  0  0  0  0
 10 11  1  0  0  0  0
 11 12  2  0  0  0  0
 12 13  1  0  0  0  0
 14 13  2  0  0  0  0
M  END
>  <MODEL>
3

>  <REMARK>
 VINA RESULT:      -4.6      2.872      3.503
  3 active torsions:
  status: ('A' for Active; 'I' for Inactive)
    1  A    between atoms: C_2  and  N_3 
    2  A    between atoms: C_2  and  S_4 
    3  A    between atoms: S_4  and  C_7 

>  <TORSDO>
F 3

$$$$
../results/processed/lowest_conf/7XP6/docked/b2c.pdbqt
 OpenBabel07252415363D

 14 14  0  0  1  0  0  0  0  0999 V2000
  145.5140  139.9860   99.7260 S   0  0  0  0  0  0  0  0  0  0  0  0
  146.8860  140.2560   99.3330 O   0  0  0  0  0  0  0  0  0  0  0  0
  145.0850  140.2510  101.0890 O   0  0  0  0  0  0  0  0  0  0  0  0
  145.1310  138.2290   99.3460 C   0  0  1  0  0  3  0  0  0  0  0  0
  145.3830  137.9210   97.8720 C   0  0  0  0  0  1  0  0  0  0  0  0
  145.8690  137.2230  100.1650 N   0  0  0  0  0  0  0  0  0  0  0  0
  145.1960  136.5150  100.4700 H   0  0  0  0  0  0  0  0  0  0  0  0
  146.4980  136.7180   99.5330 H   0  0  0  0  0  0  0  0  0  0  0  0
  144.4390  140.9110   98.6550 C   0  0  0  0  0  0  0  0  0  0  0  0
  143.0760  140.6010   98.6260 C   0  0  0  0  0  3  0  0  0  0  0  0
  142.2280  141.3290   97.7920 C   0  0  0  0  0  3  0  0  0  0  0  0
  142.7390  142.3620   97.0050 C   0  0  0  0  0  3  0  0  0  0  0  0
  144.0970  142.6790   97.0540 C   0  0  0  0  0  3  0  0  0  0  0  0
  144.9530  141.9570   97.8860 C   0  0  0  0  0  3  0  0  0  0  0  0
  1  3  2  0  0  0  0
  2  1  2  0  0  0  0
  4  5  1  6  0  0  0
  4  1  1  0  0  0  0
  4  6  1  0  0  0  0
  6  7  1  0  0  0  0
  8  6  1  0  0  0  0
  9  1  1  0  0  0  0
 10  9  1  0  0  0  0
 11 10  2  0  0  0  0
 12 13  2  0  0  0  0
 12 11  1  0  0  0  0
 13 14  1  0  0  0  0
 14  9  2  0  0  0  0
M  END
>  <MODEL>
4

>  <REMARK>
 VINA RESULT:      -4.5      2.556      3.531
  3 active torsions:
  status: ('A' for Active; 'I' for Inactive)
    1  A    between atoms: C_2  and  N_3 
    2  A    between atoms: C_2  and  S_4 
    3  A    between atoms: S_4  and  C_7 

>  <TORSDO>
F 3

$$$$
../results/processed/lowest_conf/7XP6/docked/b2c.pdbqt
 OpenBabel07252415363D

 14 14  0  0  1  0  0  0  0  0999 V2000
  133.4070  132.5220   92.5020 S   0  0  0  0  0  0  0  0  0  0  0  0
  132.6700  132.4610   91.2510 O   0  0  0  0  0  0  0  0  0  0  0  0
  132.8390  133.2170   93.6440 O   0  0  0  0  0  0  0  0  0  0  0  0
  135.0650  133.2440   92.1690 C   0  0  1  0  0  3  0  0  0  0  0  0
  134.9620  134.7410   91.8890 C   0  0  0  0  0  1  0  0  0  0  0  0
  136.0780  133.0390   93.2460 N   0  0  0  0  0  0  0  0  0  0  0  0
  136.8340  132.4690   92.8570 H   0  0  0  0  0  0  0  0  0  0  0  0
  136.5150  133.9480   93.4290 H   0  0  0  0  0  0  0  0  0  0  0  0
  133.7500  130.8590   93.0240 C   0  0  0  0  0  0  0  0  0  0  0  0
  133.9160  130.5940   94.3870 C   0  0  0  0  0  3  0  0  0  0  0  0
  134.1790  129.2890   94.8020 C   0  0  0  0  0  3  0  0  0  0  0  0
  134.2640  128.2600   93.8630 C   0  0  0  0  0  3  0  0  0  0  0  0
  134.0770  128.5290   92.5060 C   0  0  0  0  0  3  0  0  0  0  0  0
  133.8130  129.8310   92.0810 C   0  0  0  0  0  3  0  0  0  0  0  0
  1  9  1  0  0  0  0
  1  3  2  0  0  0  0
  2  1  2  0  0  0  0
  4  5  1  1  0  0  0
  4  1  1  0  0  0  0
  4  6  1  0  0  0  0
  6  8  1  0  0  0  0
  7  6  1  0  0  0  0
  9 10  1  0  0  0  0
 10 11  2  0  0  0  0
 12 11  1  0  0  0  0
 13 12  2  0  0  0  0
 14 13  1  0  0  0  0
 14  9  2  0  0  0  0
M  END
>  <MODEL>
5

>  <REMARK>
 VINA RESULT:      -4.5     15.162     16.793
  3 active torsions:
  status: ('A' for Active; 'I' for Inactive)
    1  A    between atoms: C_2  and  N_3 
    2  A    between atoms: C_2  and  S_4 
    3  A    between atoms: S_4  and  C_7 

>  <TORSDO>
F 3

$$$$
../results/processed/lowest_conf/7XP6/docked/b2c.pdbqt
 OpenBabel07252415363D

 14 14  0  0  1  0  0  0  0  0999 V2000
  141.8440  142.0720   96.3390 S   0  0  0  0  0  0  0  0  0  0  0  0
  141.5940  140.6410   96.3790 O   0  0  0  0  0  0  0  0  0  0  0  0
  140.9360  142.9850   97.0110 O   0  0  0  0  0  0  0  0  0  0  0  0
  141.9700  142.5950   94.5810 C   0  0  1  0  0  3  0  0  0  0  0  0
  141.9000  141.3900   93.6460 C   0  0  0  0  0  1  0  0  0  0  0  0
  140.9490  143.5900   94.1360 N   0  0  0  0  0  0  0  0  0  0  0  0
  140.0640  143.0920   94.0080 H   0  0  0  0  0  0  0  0  0  0  0  0
  140.7750  144.2200   94.9250 H   0  0  0  0  0  0  0  0  0  0  0  0
  143.4650  142.3700   97.0020 C   0  0  0  0  0  0  0  0  0  0  0  0
  144.0380  141.4200   97.8520 C   0  0  0  0  0  3  0  0  0  0  0  0
  145.3130  141.6470   98.3690 C   0  0  0  0  0  3  0  0  0  0  0  0
  146.0090  142.8070   98.0290 C   0  0  0  0  0  3  0  0  0  0  0  0
  145.4400  143.7420   97.1630 C   0  0  0  0  0  3  0  0  0  0  0  0
  144.1650  143.5240   96.6400 C   0  0  0  0  0  3  0  0  0  0  0  0
  1  2  2  0  0  0  0
  1  9  1  0  0  0  0
  1  3  2  0  0  0  0
  4  5  1  6  0  0  0
  4  1  1  0  0  0  0
  6  4  1  0  0  0  0
  6  8  1  0  0  0  0
  7  6  1  0  0  0  0
  9 10  1  0  0  0  0
 10 11  2  0  0  0  0
 12 11  1  0  0  0  0
 13 12  2  0  0  0  0
 14  9  2  0  0  0  0
 14 13  1  0  0  0  0
M  END
>  <MODEL>
6

>  <REMARK>
 VINA RESULT:      -4.4      4.831      5.685
  3 active torsions:
  status: ('A' for Active; 'I' for Inactive)
    1  A    between atoms: C_2  and  N_3 
    2  A    between atoms: C_2  and  S_4 
    3  A    between atoms: S_4  and  C_7 

>  <TORSDO>
F 3

$$$$
../results/processed/lowest_conf/7XP6/docked/b2c.pdbqt
 OpenBabel07252415363D

 14 14  0  0  1  0  0  0  0  0999 V2000
  145.5990  140.8370   98.4320 S   0  0  0  0  0  0  0  0  0  0  0  0
  146.0720  139.8700   97.4560 O   0  0  0  0  0  0  0  0  0  0  0  0
  146.4090  141.9990   98.7520 O   0  0  0  0  0  0  0  0  0  0  0  0
  145.2340  139.9530  100.0020 C   0  0  1  0  0  3  0  0  0  0  0  0
  146.3590  138.9840  100.3570 C   0  0  0  0  0  1  0  0  0  0  0  0
  144.9830  140.8300  101.1850 N   0  0  0  0  0  0  0  0  0  0  0  0
  143.9700  140.9330  101.2860 H   0  0  0  0  0  0  0  0  0  0  0  0
  145.2700  140.3060  102.0170 H   0  0  0  0  0  0  0  0  0  0  0  0
  144.0180  141.4400   97.8920 C   0  0  0  0  0  0  0  0  0  0  0  0
  142.8570  140.7910   98.3220 C   0  0  0  0  0  3  0  0  0  0  0  0
  141.6130  141.2650   97.9060 C   0  0  0  0  0  3  0  0  0  0  0  0
  141.5340  142.3850   97.0770 C   0  0  0  0  0  3  0  0  0  0  0  0
  142.6960  143.0410   96.6670 C   0  0  0  0  0  3  0  0  0  0  0  0
  143.9450  142.5740   97.0790 C   0  0  0  0  0  3  0  0  0  0  0  0
  1  3  2  0  0  0  0
  1  4  1  0  0  0  0
  2  1  2  0  0  0  0
  4  5  1  1  0  0  0
  4  6  1  0  0  0  0
  6  7  1  0  0  0  0
  6  8  1  0  0  0  0
  9 10  1  0  0  0  0
  9  1  1  0  0  0  0
 11 10  2  0  0  0  0
 12 11  1  0  0  0  0
 13 12  2  0  0  0  0
 13 14  1  0  0  0  0
 14  9  2  0  0  0  0
M  END
>  <MODEL>
7

>  <REMARK>
 VINA RESULT:      -4.4      3.272      4.155
  3 active torsions:
  status: ('A' for Active; 'I' for Inactive)
    1  A    between atoms: C_2  and  N_3 
    2  A    between atoms: C_2  and  S_4 
    3  A    between atoms: S_4  and  C_7 

>  <TORSDO>
F 3

$$$$
../results/processed/lowest_conf/7XP6/docked/b2c.pdbqt
 OpenBabel07252415363D

 14 14  0  0  1  0  0  0  0  0999 V2000
  144.1730  134.4320   96.8910 S   0  0  0  0  0  0  0  0  0  0  0  0
  145.5180  133.8830   96.8690 O   0  0  0  0  0  0  0  0  0  0  0  0
  143.5370  134.8420   95.6500 O   0  0  0  0  0  0  0  0  0  0  0  0
  144.1450  135.8670   98.0390 C   0  0  1  0  0  3  0  0  0  0  0  0
  142.7230  136.1710   98.5000 C   0  0  0  0  0  1  0  0  0  0  0  0
  145.0090  135.7330   99.2500 N   0  0  0  0  0  0  0  0  0  0  0  0
  144.6720  136.4010   99.9480 H   0  0  0  0  0  0  0  0  0  0  0  0
  144.8130  134.8150   99.6620 H   0  0  0  0  0  0  0  0  0  0  0  0
  143.1000  133.2390   97.6540 C   0  0  0  0  0  0  0  0  0  0  0  0
  143.5430  132.5520   98.7880 C   0  0  0  0  0  3  0  0  0  0  0  0
  142.7010  131.6190   99.3930 C   0  0  0  0  0  3  0  0  0  0  0  0
  141.4270  131.3870   98.8750 C   0  0  0  0  0  3  0  0  0  0  0  0
  140.9830  132.0920   97.7540 C   0  0  0  0  0  3  0  0  0  0  0  0
  141.8180  133.0270   97.1420 C   0  0  0  0  0  3  0  0  0  0  0  0
  1  9  1  0  0  0  0
  1  4  1  0  0  0  0
  2  1  2  0  0  0  0
  3  1  2  0  0  0  0
  4  5  1  1  0  0  0
  4  6  1  0  0  0  0
  6  8  1  0  0  0  0
  6  7  1  0  0  0  0
  9 10  1  0  0  0  0
 10 11  2  0  0  0  0
 12 11  1  0  0  0  0
 13 12  2  0  0  0  0
 14  9  2  0  0  0  0
 14 13  1  0  0  0  0
M  END
>  <MODEL>
8

>  <REMARK>
 VINA RESULT:      -4.3      5.880      8.453
  3 active torsions:
  status: ('A' for Active; 'I' for Inactive)
    1  A    between atoms: C_2  and  N_3 
    2  A    between atoms: C_2  and  S_4 
    3  A    between atoms: S_4  and  C_7 

>  <TORSDO>
F 3

$$$$
../results/processed/lowest_conf/7XP6/docked/b2c.pdbqt
 OpenBabel07252415363D

 14 14  0  0  1  0  0  0  0  0999 V2000
  147.8210  148.2160  112.4480 S   0  0  0  0  0  0  0  0  0  0  0  0
  147.5500  149.4730  113.1240 O   0  0  0  0  0  0  0  0  0  0  0  0
  146.7370  147.4900  111.8090 O   0  0  0  0  0  0  0  0  0  0  0  0
  148.6400  147.0770  113.6350 C   0  0  1  0  0  3  0  0  0  0  0  0
  148.1210  147.3000  115.0530 C   0  0  0  0  0  1  0  0  0  0  0  0
  148.5140  145.6230  113.3170 N   0  0  0  0  0  0  0  0  0  0  0  0
  147.7520  145.5180  112.6420 H   0  0  0  0  0  0  0  0  0  0  0  0
  149.3540  145.3530  112.7960 H   0  0  0  0  0  0  0  0  0  0  0  0
  149.0530  148.5100  111.2020 C   0  0  0  0  0  0  0  0  0  0  0  0
  150.3790  148.1480  111.4560 C   0  0  0  0  0  3  0  0  0  0  0  0
  151.3480  148.3710  110.4790 C   0  0  0  0  0  3  0  0  0  0  0  0
  150.9890  148.9410  109.2570 C   0  0  0  0  0  3  0  0  0  0  0  0
  149.6600  149.2830  109.0020 C   0  0  0  0  0  3  0  0  0  0  0  0
  148.6840  149.0630  109.9730 C   0  0  0  0  0  3  0  0  0  0  0  0
  1  2  2  0  0  0  0
  1  4  1  0  0  0  0
  3  1  2  0  0  0  0
  4  5  1  1  0  0  0
  6  4  1  0  0  0  0
  7  6  1  0  0  0  0
  8  6  1  0  0  0  0
  9 10  1  0  0  0  0
  9  1  1  0  0  0  0
 11 10  2  0  0  0  0
 12 11  1  0  0  0  0
 13 12  2  0  0  0  0
 13 14  1  0  0  0  0
 14  9  2  0  0  0  0
M  END
>  <MODEL>
9

>  <REMARK>
 VINA RESULT:      -4.3     14.730     15.468
  3 active torsions:
  status: ('A' for Active; 'I' for Inactive)
    1  A    between atoms: C_2  and  N_3 
    2  A    between atoms: C_2  and  S_4 
    3  A    between atoms: S_4  and  C_7 

>  <TORSDO>
F 3

$$$$
