MODEL 1
REMARK VINA RESULT:      -4.8      0.000      0.000
REMARK  3 active torsions:
REMARK  status: ('A' for Active; 'I' for Inactive)
REMARK    1  A    between atoms: C_2  and  N_3 
REMARK    2  A    between atoms: C_2  and  S_4 
REMARK    3  A    between atoms: S_4  and  C_7 
ROOT
ATOM      1  S   UNL d   1     145.328 139.340  98.533  0.00  0.00     0.206 S 
ATOM      2  O   UNL d   1     144.063 139.818  99.065  0.00  0.00    -0.220 OA
ATOM      3  O   UNL d   1     145.379 138.750  97.207  0.00  0.00    -0.220 OA
ENDROOT
BRANCH   1   4
ATOM      4  C   UNL d   1     146.041 138.130  99.718  0.00  0.00     0.339 C 
ATOM      5  C   UNL d   1     145.967 138.656 101.148  0.00  0.00     0.060 C 
BRANCH   4   6
ATOM      6  N   UNL d   1     145.426 136.769  99.689  0.00  0.00     0.097 N 
ATOM      7  H   UNL d   1     144.477 136.865  99.320  0.00  0.00     0.314 HD
ATOM      8  H   UNL d   1     145.923 136.226  98.976  0.00  0.00     0.314 HD
ENDBRANCH   4   6
ENDBRANCH   1   4
BRANCH   1   9
ATOM      9  C   UNL d   1     146.479 140.694  98.543  0.00  0.00     0.061 A 
ATOM     10  C   UNL d   1     146.063 141.938  99.025  0.00  0.00     0.023 A 
ATOM     11  C   UNL d   1     146.965 143.001  99.041  0.00  0.00     0.002 A 
ATOM     12  C   UNL d   1     148.272 142.816  98.588  0.00  0.00     0.000 A 
ATOM     13  C   UNL d   1     148.687 141.566  98.126  0.00  0.00     0.002 A 
ATOM     14  C   UNL d   1     147.792 140.496  98.107  0.00  0.00     0.023 A 
ENDBRANCH   1   9
TORSDOF 3
ENDMDL
MODEL 2
REMARK VINA RESULT:      -4.7      3.233      4.581
REMARK  3 active torsions:
REMARK  status: ('A' for Active; 'I' for Inactive)
REMARK    1  A    between atoms: C_2  and  N_3 
REMARK    2  A    between atoms: C_2  and  S_4 
REMARK    3  A    between atoms: S_4  and  C_7 
ROOT
ATOM      1  S   UNL d   1     147.977 141.471  97.571  0.00  0.00     0.206 S 
ATOM      2  O   UNL d   1     149.120 140.589  97.408  0.00  0.00    -0.220 OA
ATOM      3  O   UNL d   1     147.101 141.736  96.443  0.00  0.00    -0.220 OA
ENDROOT
BRANCH   1   4
ATOM      4  C   UNL d   1     148.571 143.086  98.216  0.00  0.00     0.339 C 
ATOM      5  C   UNL d   1     150.054 143.021  98.570  0.00  0.00     0.060 C 
BRANCH   4   6
ATOM      6  N   UNL d   1     148.359 144.253  97.308  0.00  0.00     0.097 N 
ATOM      7  H   UNL d   1     147.886 144.983  97.846  0.00  0.00     0.314 HD
ATOM      8  H   UNL d   1     149.282 144.648  97.101  0.00  0.00     0.314 HD
ENDBRANCH   4   6
ENDBRANCH   1   4
BRANCH   1   9
ATOM      9  C   UNL d   1     146.960 140.825  98.876  0.00  0.00     0.061 A 
ATOM     10  C   UNL d   1     145.942 141.623  99.406  0.00  0.00     0.023 A 
ATOM     11  C   UNL d   1     145.137 141.118 100.426  0.00  0.00     0.002 A 
ATOM     12  C   UNL d   1     145.343 139.822 100.902  0.00  0.00     0.000 A 
ATOM     13  C   UNL d   1     146.348 139.023 100.355  0.00  0.00     0.002 A 
ATOM     14  C   UNL d   1     147.158 139.520  99.334  0.00  0.00     0.023 A 
ENDBRANCH   1   9
TORSDOF 3
ENDMDL
MODEL 3
REMARK VINA RESULT:      -4.6      2.872      3.503
REMARK  3 active torsions:
REMARK  status: ('A' for Active; 'I' for Inactive)
REMARK    1  A    between atoms: C_2  and  N_3 
REMARK    2  A    between atoms: C_2  and  S_4 
REMARK    3  A    between atoms: S_4  and  C_7 
ROOT
ATOM      1  S   UNL d   1     144.288 136.978  97.782  0.00  0.00     0.206 S 
ATOM      2  O   UNL d   1     142.918 137.108  97.314  0.00  0.00    -0.220 OA
ATOM      3  O   UNL d   1     145.372 136.856  96.823  0.00  0.00    -0.220 OA
ENDROOT
BRANCH   1   4
ATOM      4  C   UNL d   1     144.382 135.543  98.926  0.00  0.00     0.339 C 
ATOM      5  C   UNL d   1     142.990 135.004  99.243  0.00  0.00     0.060 C 
BRANCH   4   6
ATOM      6  N   UNL d   1     145.226 134.404  98.454  0.00  0.00     0.097 N 
ATOM      7  H   UNL d   1     145.910 134.200  99.187  0.00  0.00     0.314 HD
ATOM      8  H   UNL d   1     144.627 133.573  98.427  0.00  0.00     0.314 HD
ENDBRANCH   4   6
ENDBRANCH   1   4
BRANCH   1   9
ATOM      9  C   UNL d   1     144.658 138.381  98.807  0.00  0.00     0.061 A 
ATOM     10  C   UNL d   1     144.000 139.591  98.570  0.00  0.00     0.023 A 
ATOM     11  C   UNL d   1     144.283 140.693  99.376  0.00  0.00     0.002 A 
ATOM     12  C   UNL d   1     145.207 140.579 100.416  0.00  0.00     0.000 A 
ATOM     13  C   UNL d   1     145.845 139.362 100.661  0.00  0.00     0.002 A 
ATOM     14  C   UNL d   1     145.569 138.255  99.859  0.00  0.00     0.023 A 
ENDBRANCH   1   9
TORSDOF 3
ENDMDL
MODEL 4
REMARK VINA RESULT:      -4.5      2.556      3.531
REMARK  3 active torsions:
REMARK  status: ('A' for Active; 'I' for Inactive)
REMARK    1  A    between atoms: C_2  and  N_3 
REMARK    2  A    between atoms: C_2  and  S_4 
REMARK    3  A    between atoms: S_4  and  C_7 
ROOT
ATOM      1  S   UNL d   1     145.514 139.986  99.726  0.00  0.00     0.206 S 
ATOM      2  O   UNL d   1     146.886 140.256  99.333  0.00  0.00    -0.220 OA
ATOM      3  O   UNL d   1     145.085 140.251 101.089  0.00  0.00    -0.220 OA
ENDROOT
BRANCH   1   4
ATOM      4  C   UNL d   1     145.131 138.229  99.346  0.00  0.00     0.339 C 
ATOM      5  C   UNL d   1     145.383 137.921  97.872  0.00  0.00     0.060 C 
BRANCH   4   6
ATOM      6  N   UNL d   1     145.869 137.223 100.165  0.00  0.00     0.097 N 
ATOM      7  H   UNL d   1     145.196 136.515 100.470  0.00  0.00     0.314 HD
ATOM      8  H   UNL d   1     146.498 136.718  99.533  0.00  0.00     0.314 HD
ENDBRANCH   4   6
ENDBRANCH   1   4
BRANCH   1   9
ATOM      9  C   UNL d   1     144.439 140.911  98.655  0.00  0.00     0.061 A 
ATOM     10  C   UNL d   1     143.076 140.601  98.626  0.00  0.00     0.023 A 
ATOM     11  C   UNL d   1     142.228 141.329  97.792  0.00  0.00     0.002 A 
ATOM     12  C   UNL d   1     142.739 142.362  97.005  0.00  0.00     0.000 A 
ATOM     13  C   UNL d   1     144.097 142.679  97.054  0.00  0.00     0.002 A 
ATOM     14  C   UNL d   1     144.953 141.957  97.886  0.00  0.00     0.023 A 
ENDBRANCH   1   9
TORSDOF 3
ENDMDL
MODEL 5
REMARK VINA RESULT:      -4.5     15.162     16.793
REMARK  3 active torsions:
REMARK  status: ('A' for Active; 'I' for Inactive)
REMARK    1  A    between atoms: C_2  and  N_3 
REMARK    2  A    between atoms: C_2  and  S_4 
REMARK    3  A    between atoms: S_4  and  C_7 
ROOT
ATOM      1  S   UNL d   1     133.407 132.522  92.502  0.00  0.00     0.206 S 
ATOM      2  O   UNL d   1     132.670 132.461  91.251  0.00  0.00    -0.220 OA
ATOM      3  O   UNL d   1     132.839 133.217  93.644  0.00  0.00    -0.220 OA
ENDROOT
BRANCH   1   4
ATOM      4  C   UNL d   1     135.065 133.244  92.169  0.00  0.00     0.339 C 
ATOM      5  C   UNL d   1     134.962 134.741  91.889  0.00  0.00     0.060 C 
BRANCH   4   6
ATOM      6  N   UNL d   1     136.078 133.039  93.246  0.00  0.00     0.097 N 
ATOM      7  H   UNL d   1     136.834 132.469  92.857  0.00  0.00     0.314 HD
ATOM      8  H   UNL d   1     136.515 133.948  93.429  0.00  0.00     0.314 HD
ENDBRANCH   4   6
ENDBRANCH   1   4
BRANCH   1   9
ATOM      9  C   UNL d   1     133.750 130.859  93.024  0.00  0.00     0.061 A 
ATOM     10  C   UNL d   1     133.916 130.594  94.387  0.00  0.00     0.023 A 
ATOM     11  C   UNL d   1     134.179 129.289  94.802  0.00  0.00     0.002 A 
ATOM     12  C   UNL d   1     134.264 128.260  93.863  0.00  0.00     0.000 A 
ATOM     13  C   UNL d   1     134.077 128.529  92.506  0.00  0.00     0.002 A 
ATOM     14  C   UNL d   1     133.813 129.831  92.081  0.00  0.00     0.023 A 
ENDBRANCH   1   9
TORSDOF 3
ENDMDL
MODEL 6
REMARK VINA RESULT:      -4.4      4.831      5.685
REMARK  3 active torsions:
REMARK  status: ('A' for Active; 'I' for Inactive)
REMARK    1  A    between atoms: C_2  and  N_3 
REMARK    2  A    between atoms: C_2  and  S_4 
REMARK    3  A    between atoms: S_4  and  C_7 
ROOT
ATOM      1  S   UNL d   1     141.844 142.072  96.339  0.00  0.00     0.206 S 
ATOM      2  O   UNL d   1     141.594 140.641  96.379  0.00  0.00    -0.220 OA
ATOM      3  O   UNL d   1     140.936 142.985  97.011  0.00  0.00    -0.220 OA
ENDROOT
BRANCH   1   4
ATOM      4  C   UNL d   1     141.970 142.595  94.581  0.00  0.00     0.339 C 
ATOM      5  C   UNL d   1     141.900 141.390  93.646  0.00  0.00     0.060 C 
BRANCH   4   6
ATOM      6  N   UNL d   1     140.949 143.590  94.136  0.00  0.00     0.097 N 
ATOM      7  H   UNL d   1     140.064 143.092  94.008  0.00  0.00     0.314 HD
ATOM      8  H   UNL d   1     140.775 144.220  94.925  0.00  0.00     0.314 HD
ENDBRANCH   4   6
ENDBRANCH   1   4
BRANCH   1   9
ATOM      9  C   UNL d   1     143.465 142.370  97.002  0.00  0.00     0.061 A 
ATOM     10  C   UNL d   1     144.038 141.420  97.852  0.00  0.00     0.023 A 
ATOM     11  C   UNL d   1     145.313 141.647  98.369  0.00  0.00     0.002 A 
ATOM     12  C   UNL d   1     146.009 142.807  98.029  0.00  0.00     0.000 A 
ATOM     13  C   UNL d   1     145.440 143.742  97.163  0.00  0.00     0.002 A 
ATOM     14  C   UNL d   1     144.165 143.524  96.640  0.00  0.00     0.023 A 
ENDBRANCH   1   9
TORSDOF 3
ENDMDL
MODEL 7
REMARK VINA RESULT:      -4.4      3.272      4.155
REMARK  3 active torsions:
REMARK  status: ('A' for Active; 'I' for Inactive)
REMARK    1  A    between atoms: C_2  and  N_3 
REMARK    2  A    between atoms: C_2  and  S_4 
REMARK    3  A    between atoms: S_4  and  C_7 
ROOT
ATOM      1  S   UNL d   1     145.599 140.837  98.432  0.00  0.00     0.206 S 
ATOM      2  O   UNL d   1     146.072 139.870  97.456  0.00  0.00    -0.220 OA
ATOM      3  O   UNL d   1     146.409 141.999  98.752  0.00  0.00    -0.220 OA
ENDROOT
BRANCH   1   4
ATOM      4  C   UNL d   1     145.234 139.953 100.002  0.00  0.00     0.339 C 
ATOM      5  C   UNL d   1     146.359 138.984 100.357  0.00  0.00     0.060 C 
BRANCH   4   6
ATOM      6  N   UNL d   1     144.983 140.830 101.185  0.00  0.00     0.097 N 
ATOM      7  H   UNL d   1     143.970 140.933 101.286  0.00  0.00     0.314 HD
ATOM      8  H   UNL d   1     145.270 140.306 102.017  0.00  0.00     0.314 HD
ENDBRANCH   4   6
ENDBRANCH   1   4
BRANCH   1   9
ATOM      9  C   UNL d   1     144.018 141.440  97.892  0.00  0.00     0.061 A 
ATOM     10  C   UNL d   1     142.857 140.791  98.322  0.00  0.00     0.023 A 
ATOM     11  C   UNL d   1     141.613 141.265  97.906  0.00  0.00     0.002 A 
ATOM     12  C   UNL d   1     141.534 142.385  97.077  0.00  0.00     0.000 A 
ATOM     13  C   UNL d   1     142.696 143.041  96.667  0.00  0.00     0.002 A 
ATOM     14  C   UNL d   1     143.945 142.574  97.079  0.00  0.00     0.023 A 
ENDBRANCH   1   9
TORSDOF 3
ENDMDL
MODEL 8
REMARK VINA RESULT:      -4.3      5.880      8.453
REMARK  3 active torsions:
REMARK  status: ('A' for Active; 'I' for Inactive)
REMARK    1  A    between atoms: C_2  and  N_3 
REMARK    2  A    between atoms: C_2  and  S_4 
REMARK    3  A    between atoms: S_4  and  C_7 
ROOT
ATOM      1  S   UNL d   1     144.173 134.432  96.891  0.00  0.00     0.206 S 
ATOM      2  O   UNL d   1     145.518 133.883  96.869  0.00  0.00    -0.220 OA
ATOM      3  O   UNL d   1     143.537 134.842  95.650  0.00  0.00    -0.220 OA
ENDROOT
BRANCH   1   4
ATOM      4  C   UNL d   1     144.145 135.867  98.039  0.00  0.00     0.339 C 
ATOM      5  C   UNL d   1     142.723 136.171  98.500  0.00  0.00     0.060 C 
BRANCH   4   6
ATOM      6  N   UNL d   1     145.009 135.733  99.250  0.00  0.00     0.097 N 
ATOM      7  H   UNL d   1     144.672 136.401  99.948  0.00  0.00     0.314 HD
ATOM      8  H   UNL d   1     144.813 134.815  99.662  0.00  0.00     0.314 HD
ENDBRANCH   4   6
ENDBRANCH   1   4
BRANCH   1   9
ATOM      9  C   UNL d   1     143.100 133.239  97.654  0.00  0.00     0.061 A 
ATOM     10  C   UNL d   1     143.543 132.552  98.788  0.00  0.00     0.023 A 
ATOM     11  C   UNL d   1     142.701 131.619  99.393  0.00  0.00     0.002 A 
ATOM     12  C   UNL d   1     141.427 131.387  98.875  0.00  0.00     0.000 A 
ATOM     13  C   UNL d   1     140.983 132.092  97.754  0.00  0.00     0.002 A 
ATOM     14  C   UNL d   1     141.818 133.027  97.142  0.00  0.00     0.023 A 
ENDBRANCH   1   9
TORSDOF 3
ENDMDL
MODEL 9
REMARK VINA RESULT:      -4.3     14.730     15.468
REMARK  3 active torsions:
REMARK  status: ('A' for Active; 'I' for Inactive)
REMARK    1  A    between atoms: C_2  and  N_3 
REMARK    2  A    between atoms: C_2  and  S_4 
REMARK    3  A    between atoms: S_4  and  C_7 
ROOT
ATOM      1  S   UNL d   1     147.821 148.216 112.448  0.00  0.00     0.206 S 
ATOM      2  O   UNL d   1     147.550 149.473 113.124  0.00  0.00    -0.220 OA
ATOM      3  O   UNL d   1     146.737 147.490 111.809  0.00  0.00    -0.220 OA
ENDROOT
BRANCH   1   4
ATOM      4  C   UNL d   1     148.640 147.077 113.635  0.00  0.00     0.339 C 
ATOM      5  C   UNL d   1     148.121 147.300 115.053  0.00  0.00     0.060 C 
BRANCH   4   6
ATOM      6  N   UNL d   1     148.514 145.623 113.317  0.00  0.00     0.097 N 
ATOM      7  H   UNL d   1     147.752 145.518 112.642  0.00  0.00     0.314 HD
ATOM      8  H   UNL d   1     149.354 145.353 112.796  0.00  0.00     0.314 HD
ENDBRANCH   4   6
ENDBRANCH   1   4
BRANCH   1   9
ATOM      9  C   UNL d   1     149.053 148.510 111.202  0.00  0.00     0.061 A 
ATOM     10  C   UNL d   1     150.379 148.148 111.456  0.00  0.00     0.023 A 
ATOM     11  C   UNL d   1     151.348 148.371 110.479  0.00  0.00     0.002 A 
ATOM     12  C   UNL d   1     150.989 148.941 109.257  0.00  0.00     0.000 A 
ATOM     13  C   UNL d   1     149.660 149.283 109.002  0.00  0.00     0.002 A 
ATOM     14  C   UNL d   1     148.684 149.063 109.973  0.00  0.00     0.023 A 
ENDBRANCH   1   9
TORSDOF 3
ENDMDL
