MODEL 1
REMARK VINA RESULT:      -4.8      0.000      0.000
REMARK  3 active torsions:
REMARK  status: ('A' for Active; 'I' for Inactive)
REMARK    1  A    between atoms: C_5  and  C_9 
REMARK    2  A    between atoms: C_6  and  O_8 
REMARK    3  A    between atoms: C_9  and  O_11 
ROOT
ATOM      1  C   UNL d   1     146.765 143.372  98.708  0.00  0.00     0.010 C 
ATOM      2  C   UNL d   1     146.320 141.915  98.824  0.00  0.00    -0.016 C 
ATOM      3  C   UNL d   1     145.665 141.658 100.188  0.00  0.00     0.005 C 
ATOM      4  C   UNL d   1     145.282 140.189 100.376  0.00  0.00     0.018 C 
ATOM      5  C   UNL d   1     146.488 139.273 100.151  0.00  0.00     0.112 C 
ATOM      6  C   UNL d   1     147.113 139.496  98.766  0.00  0.00     0.132 C 
ATOM      7  C   UNL d   1     147.508 140.966  98.590  0.00  0.00     0.037 C 
ENDROOT
BRANCH   5   8
ATOM      8  C   UNL d   1     146.097 137.828 100.332  0.00  0.00     0.146 C 
ATOM      9  O   UNL d   1     145.229 137.225  99.719  0.00  0.00    -0.650 OA
BRANCH   8  10
ATOM     10  O   UNL d   1     146.827 137.205 101.277  0.00  0.00    -0.776 OA
ATOM     11  H   UNL d   1     146.783 136.255 101.036  0.00  0.00     0.167 HD
ENDBRANCH   8  10
ENDBRANCH   5   8
BRANCH   6  12
ATOM     12  O   UNL d   1     146.196 139.169  97.719  0.00  0.00    -0.395 OA
ATOM     13  H   UNL d   1     146.231 139.902  97.071  0.00  0.00     0.210 HD
ENDBRANCH   6  12
TORSDOF 3
ENDMDL
MODEL 2
REMARK VINA RESULT:      -4.6      1.465      2.214
REMARK  3 active torsions:
REMARK  status: ('A' for Active; 'I' for Inactive)
REMARK    1  A    between atoms: C_5  and  C_9 
REMARK    2  A    between atoms: C_6  and  O_8 
REMARK    3  A    between atoms: C_9  and  O_11 
ROOT
ATOM      1  C   UNL d   1     145.935 142.947  97.528  0.00  0.00     0.010 C 
ATOM      2  C   UNL d   1     146.034 141.894  98.631  0.00  0.00    -0.016 C 
ATOM      3  C   UNL d   1     147.150 140.888  98.318  0.00  0.00     0.005 C 
ATOM      4  C   UNL d   1     147.225 139.768  99.356  0.00  0.00     0.018 C 
ATOM      5  C   UNL d   1     145.870 139.071  99.512  0.00  0.00     0.112 C 
ATOM      6  C   UNL d   1     144.762 140.072  99.874  0.00  0.00     0.132 C 
ATOM      7  C   UNL d   1     144.683 141.183  98.822  0.00  0.00     0.037 C 
ENDROOT
BRANCH   5   8
ATOM      8  C   UNL d   1     145.954 137.974 100.543  0.00  0.00     0.146 C 
ATOM      9  O   UNL d   1     146.187 138.110 101.735  0.00  0.00    -0.650 OA
BRANCH   8  10
ATOM     10  O   UNL d   1     145.731 136.752 100.023  0.00  0.00    -0.776 OA
ATOM     11  H   UNL d   1     145.828 136.139 100.783  0.00  0.00     0.167 HD
ENDBRANCH   8  10
ENDBRANCH   5   8
BRANCH   6  12
ATOM     12  O   UNL d   1     145.010 140.693 101.138  0.00  0.00    -0.395 OA
ATOM     13  H   UNL d   1     145.979 140.809 101.213  0.00  0.00     0.210 HD
ENDBRANCH   6  12
TORSDOF 3
ENDMDL
MODEL 3
REMARK VINA RESULT:      -4.6     16.580     17.911
REMARK  3 active torsions:
REMARK  status: ('A' for Active; 'I' for Inactive)
REMARK    1  A    between atoms: C_5  and  C_9 
REMARK    2  A    between atoms: C_6  and  O_8 
REMARK    3  A    between atoms: C_9  and  O_11 
ROOT
ATOM      1  C   UNL d   1     135.189 131.734  92.330  0.00  0.00     0.010 C 
ATOM      2  C   UNL d   1     134.746 130.389  92.906  0.00  0.00    -0.016 C 
ATOM      3  C   UNL d   1     133.689 129.737  92.004  0.00  0.00     0.005 C 
ATOM      4  C   UNL d   1     133.159 128.429  92.591  0.00  0.00     0.018 C 
ATOM      5  C   UNL d   1     132.630 128.638  94.012  0.00  0.00     0.112 C 
ATOM      6  C   UNL d   1     133.704 129.245  94.928  0.00  0.00     0.132 C 
ATOM      7  C   UNL d   1     134.221 130.563  94.342  0.00  0.00     0.037 C 
ENDROOT
BRANCH   5   8
ATOM      8  C   UNL d   1     132.116 127.340  94.583  0.00  0.00     0.146 C 
ATOM      9  O   UNL d   1     131.088 127.181  95.224  0.00  0.00    -0.650 OA
BRANCH   8  10
ATOM     10  O   UNL d   1     132.922 126.296  94.312  0.00  0.00    -0.776 OA
ATOM     11  H   UNL d   1     132.623 125.588  94.921  0.00  0.00     0.167 HD
ENDBRANCH   8  10
ENDBRANCH   5   8
BRANCH   6  12
ATOM     12  O   UNL d   1     134.825 128.369  95.072  0.00  0.00    -0.395 OA
ATOM     13  H   UNL d   1     135.571 128.780  94.588  0.00  0.00     0.210 HD
ENDBRANCH   6  12
TORSDOF 3
ENDMDL
MODEL 4
REMARK VINA RESULT:      -4.4      5.142      6.441
REMARK  3 active torsions:
REMARK  status: ('A' for Active; 'I' for Inactive)
REMARK    1  A    between atoms: C_5  and  C_9 
REMARK    2  A    between atoms: C_6  and  O_8 
REMARK    3  A    between atoms: C_9  and  O_11 
ROOT
ATOM      1  C   UNL d   1     144.941 140.414  98.719  0.00  0.00     0.010 C 
ATOM      2  C   UNL d   1     143.939 141.432  98.176  0.00  0.00    -0.016 C 
ATOM      3  C   UNL d   1     142.508 140.884  98.269  0.00  0.00     0.005 C 
ATOM      4  C   UNL d   1     141.484 141.839  97.657  0.00  0.00     0.018 C 
ATOM      5  C   UNL d   1     141.855 142.193  96.214  0.00  0.00     0.112 C 
ATOM      6  C   UNL d   1     143.269 142.788  96.128  0.00  0.00     0.132 C 
ATOM      7  C   UNL d   1     144.292 141.820  96.729  0.00  0.00     0.037 C 
ENDROOT
BRANCH   5   8
ATOM      8  C   UNL d   1     140.842 143.141  95.623  0.00  0.00     0.146 C 
ATOM      9  O   UNL d   1     140.166 142.954  94.623  0.00  0.00    -0.650 OA
BRANCH   8  10
ATOM     10  O   UNL d   1     140.722 144.281  96.328  0.00  0.00    -0.776 OA
ATOM     11  H   UNL d   1     140.059 144.809  95.834  0.00  0.00     0.167 HD
ENDBRANCH   8  10
ENDBRANCH   5   8
BRANCH   6  12
ATOM     12  O   UNL d   1     143.364 144.018  96.850  0.00  0.00    -0.395 OA
ATOM     13  H   UNL d   1     143.940 144.612  96.326  0.00  0.00     0.210 HD
ENDBRANCH   6  12
TORSDOF 3
ENDMDL
MODEL 5
REMARK VINA RESULT:      -4.4      5.011      6.491
REMARK  3 active torsions:
REMARK  status: ('A' for Active; 'I' for Inactive)
REMARK    1  A    between atoms: C_5  and  C_9 
REMARK    2  A    between atoms: C_6  and  O_8 
REMARK    3  A    between atoms: C_9  and  O_11 
ROOT
ATOM      1  C   UNL d   1     144.819 140.804  99.232  0.00  0.00     0.010 C 
ATOM      2  C   UNL d   1     143.910 141.108  98.043  0.00  0.00    -0.016 C 
ATOM      3  C   UNL d   1     144.234 142.488  97.454  0.00  0.00     0.005 C 
ATOM      4  C   UNL d   1     143.288 142.865  96.314  0.00  0.00     0.018 C 
ATOM      5  C   UNL d   1     141.826 142.777  96.760  0.00  0.00     0.112 C 
ATOM      6  C   UNL d   1     141.488 141.380  97.303  0.00  0.00     0.132 C 
ATOM      7  C   UNL d   1     142.430 141.014  98.455  0.00  0.00     0.037 C 
ENDROOT
BRANCH   5   8
ATOM      8  C   UNL d   1     140.902 143.144  95.626  0.00  0.00     0.146 C 
ATOM      9  O   UNL d   1     140.521 142.408  94.728  0.00  0.00    -0.650 OA
BRANCH   8  10
ATOM     10  O   UNL d   1     140.494 144.426  95.681  0.00  0.00    -0.776 OA
ATOM     11  H   UNL d   1     140.313 144.668  94.747  0.00  0.00     0.167 HD
ENDBRANCH   8  10
ENDBRANCH   5   8
BRANCH   6  12
ATOM     12  O   UNL d   1     141.632 140.377  96.295  0.00  0.00    -0.395 OA
ATOM     13  H   UNL d   1     141.200 140.722  95.487  0.00  0.00     0.210 HD
ENDBRANCH   6  12
TORSDOF 3
ENDMDL
MODEL 6
REMARK VINA RESULT:      -4.3     16.672     17.934
REMARK  3 active torsions:
REMARK  status: ('A' for Active; 'I' for Inactive)
REMARK    1  A    between atoms: C_5  and  C_9 
REMARK    2  A    between atoms: C_6  and  O_8 
REMARK    3  A    between atoms: C_9  and  O_11 
ROOT
ATOM      1  C   UNL d   1     135.168 131.978  92.640  0.00  0.00     0.010 C 
ATOM      2  C   UNL d   1     134.166 130.948  93.159  0.00  0.00    -0.016 C 
ATOM      3  C   UNL d   1     134.636 130.364  94.498  0.00  0.00     0.005 C 
ATOM      4  C   UNL d   1     133.702 129.267  95.009  0.00  0.00     0.018 C 
ATOM      5  C   UNL d   1     133.512 128.172  93.956  0.00  0.00     0.112 C 
ATOM      6  C   UNL d   1     132.994 128.750  92.630  0.00  0.00     0.132 C 
ATOM      7  C   UNL d   1     133.943 129.838  92.117  0.00  0.00     0.037 C 
ENDROOT
BRANCH   5   8
ATOM      8  C   UNL d   1     132.583 127.099  94.467  0.00  0.00     0.146 C 
ATOM      9  O   UNL d   1     131.518 127.270  95.041  0.00  0.00    -0.650 OA
BRANCH   8  10
ATOM     10  O   UNL d   1     133.039 125.856  94.224  0.00  0.00    -0.776 OA
ATOM     11  H   UNL d   1     134.011 125.923  94.332  0.00  0.00     0.167 HD
ENDBRANCH   8  10
ENDBRANCH   5   8
BRANCH   6  12
ATOM     12  O   UNL d   1     131.703 129.344  92.787  0.00  0.00    -0.395 OA
ATOM     13  H   UNL d   1     131.212 128.792  93.431  0.00  0.00     0.210 HD
ENDBRANCH   6  12
TORSDOF 3
ENDMDL
MODEL 7
REMARK VINA RESULT:      -4.3     15.777     17.329
REMARK  3 active torsions:
REMARK  status: ('A' for Active; 'I' for Inactive)
REMARK    1  A    between atoms: C_5  and  C_9 
REMARK    2  A    between atoms: C_6  and  O_8 
REMARK    3  A    between atoms: C_9  and  O_11 
ROOT
ATOM      1  C   UNL d   1     132.906 127.006  94.462  0.00  0.00     0.010 C 
ATOM      2  C   UNL d   1     132.986 128.521  94.279  0.00  0.00    -0.016 C 
ATOM      3  C   UNL d   1     132.555 128.918  92.860  0.00  0.00     0.005 C 
ATOM      4  C   UNL d   1     132.702 130.419  92.611  0.00  0.00     0.018 C 
ATOM      5  C   UNL d   1     134.127 130.890  92.916  0.00  0.00     0.112 C 
ATOM      6  C   UNL d   1     134.540 130.537  94.352  0.00  0.00     0.132 C 
ATOM      7  C   UNL d   1     134.405 129.030  94.591  0.00  0.00     0.037 C 
ENDROOT
BRANCH   5   8
ATOM      8  C   UNL d   1     134.258 132.372  92.673  0.00  0.00     0.146 C 
ATOM      9  O   UNL d   1     133.513 133.070  92.003  0.00  0.00    -0.650 OA
BRANCH   8  10
ATOM     10  O   UNL d   1     135.324 132.910  93.297  0.00  0.00    -0.776 OA
ATOM     11  H   UNL d   1     135.651 132.197  93.886  0.00  0.00     0.167 HD
ENDBRANCH   8  10
ENDBRANCH   5   8
BRANCH   6  12
ATOM     12  O   UNL d   1     133.715 131.200  95.313  0.00  0.00    -0.395 OA
ATOM     13  H   UNL d   1     134.290 131.829  95.796  0.00  0.00     0.210 HD
ENDBRANCH   6  12
TORSDOF 3
ENDMDL
MODEL 8
REMARK VINA RESULT:      -4.3     10.935     12.208
REMARK  3 active torsions:
REMARK  status: ('A' for Active; 'I' for Inactive)
REMARK    1  A    between atoms: C_5  and  C_9 
REMARK    2  A    between atoms: C_6  and  O_8 
REMARK    3  A    between atoms: C_9  and  O_11 
ROOT
ATOM      1  C   UNL d   1     142.309 139.294 106.993  0.00  0.00     0.010 C 
ATOM      2  C   UNL d   1     141.141 138.664 107.750  0.00  0.00    -0.016 C 
ATOM      3  C   UNL d   1     139.942 139.622 107.786  0.00  0.00     0.005 C 
ATOM      4  C   UNL d   1     138.781 139.061 108.608  0.00  0.00     0.018 C 
ATOM      5  C   UNL d   1     139.238 138.683 110.019  0.00  0.00     0.112 C 
ATOM      6  C   UNL d   1     140.406 137.686 109.983  0.00  0.00     0.132 C 
ATOM      7  C   UNL d   1     141.572 138.260 109.171  0.00  0.00     0.037 C 
ENDROOT
BRANCH   5   8
ATOM      8  C   UNL d   1     138.087 138.125 110.818  0.00  0.00     0.146 C 
ATOM      9  O   UNL d   1     138.033 138.006 112.032  0.00  0.00    -0.650 OA
BRANCH   8  10
ATOM     10  O   UNL d   1     137.050 137.750 110.045  0.00  0.00    -0.776 OA
ATOM     11  H   UNL d   1     136.295 138.287 110.367  0.00  0.00     0.167 HD
ENDBRANCH   8  10
ENDBRANCH   5   8
BRANCH   6  12
ATOM     12  O   UNL d   1     140.023 136.452 109.372  0.00  0.00    -0.395 OA
ATOM     13  H   UNL d   1     140.531 136.377 108.539  0.00  0.00     0.210 HD
ENDBRANCH   6  12
TORSDOF 3
ENDMDL
MODEL 9
REMARK VINA RESULT:      -4.1      2.557      4.242
REMARK  3 active torsions:
REMARK  status: ('A' for Active; 'I' for Inactive)
REMARK    1  A    between atoms: C_5  and  C_9 
REMARK    2  A    between atoms: C_6  and  O_8 
REMARK    3  A    between atoms: C_9  and  O_11 
ROOT
ATOM      1  C   UNL d   1     146.659 137.899 100.882  0.00  0.00     0.010 C 
ATOM      2  C   UNL d   1     146.053 138.890  99.889  0.00  0.00    -0.016 C 
ATOM      3  C   UNL d   1     145.395 140.062 100.630  0.00  0.00     0.005 C 
ATOM      4  C   UNL d   1     144.703 141.033  99.674  0.00  0.00     0.018 C 
ATOM      5  C   UNL d   1     143.700 140.302  98.779  0.00  0.00     0.112 C 
ATOM      6  C   UNL d   1     144.369 139.160  97.999  0.00  0.00     0.132 C 
ATOM      7  C   UNL d   1     145.047 138.183  98.964  0.00  0.00     0.037 C 
ENDROOT
BRANCH   5   8
ATOM      8  C   UNL d   1     143.029 141.268  97.835  0.00  0.00     0.146 C 
ATOM      9  O   UNL d   1     143.582 142.040  97.066  0.00  0.00    -0.650 OA
BRANCH   8  10
ATOM     10  O   UNL d   1     141.685 141.211  97.899  0.00  0.00    -0.776 OA
ATOM     11  H   UNL d   1     141.382 141.514  97.016  0.00  0.00     0.167 HD
ENDBRANCH   8  10
ENDBRANCH   5   8
BRANCH   6  12
ATOM     12  O   UNL d   1     145.373 139.652  97.109  0.00  0.00    -0.395 OA
ATOM     13  H   UNL d   1     145.500 140.601  97.319  0.00  0.00     0.210 HD
ENDBRANCH   6  12
TORSDOF 3
ENDMDL
