../results/processed/lowest_conf/7XP6/docked/b3.pdbqt
 OpenBabel07252415363D

 13 13  0  0  1  0  0  0  0  0999 V2000
  146.7650  143.3720   98.7080 C   0  0  0  0  0  1  0  0  0  0  0  0
  146.3200  141.9150   98.8240 C   0  0  2  0  0  3  0  0  0  0  0  0
  145.6650  141.6580  100.1880 C   0  0  0  0  0  2  0  0  0  0  0  0
  145.2820  140.1890  100.3760 C   0  0  0  0  0  2  0  0  0  0  0  0
  146.4880  139.2730  100.1510 C   0  0  2  0  0  3  0  0  0  0  0  0
  147.1130  139.4960   98.7660 C   0  0  2  0  0  3  0  0  0  0  0  0
  147.5080  140.9660   98.5900 C   0  0  0  0  0  2  0  0  0  0  0  0
  146.0970  137.8280  100.3320 C   0  0  0  0  0  0  0  0  0  0  0  0
  145.2290  137.2250   99.7190 O   0  0  0  0  0  0  0  0  0  0  0  0
  146.8270  137.2050  101.2770 O   0  0  0  0  0  0  0  0  0  0  0  0
  146.7830  136.2550  101.0360 H   0  0  0  0  0  0  0  0  0  0  0  0
  146.1960  139.1690   97.7190 O   0  0  0  0  0  0  0  0  0  0  0  0
  146.2310  139.9020   97.0710 H   0  0  0  0  0  0  0  0  0  0  0  0
  2  1  1  1  0  0  0
  2  3  1  0  0  0  0
  3  4  1  0  0  0  0
  5  8  1  6  0  0  0
  5  4  1  0  0  0  0
  6 12  1  6  0  0  0
  6  5  1  0  0  0  0
  7  6  1  0  0  0  0
  7  2  1  0  0  0  0
  8 10  1  0  0  0  0
  9  8  2  0  0  0  0
 11 10  1  0  0  0  0
 13 12  1  0  0  0  0
M  END
>  <MODEL>
1

>  <REMARK>
 VINA RESULT:      -4.8      0.000      0.000
  3 active torsions:
  status: ('A' for Active; 'I' for Inactive)
    1  A    between atoms: C_5  and  C_9 
    2  A    between atoms: C_6  and  O_8 
    3  A    between atoms: C_9  and  O_11 

>  <TORSDO>
F 3

$$$$
../results/processed/lowest_conf/7XP6/docked/b3.pdbqt
 OpenBabel07252415363D

 13 13  0  0  1  0  0  0  0  0999 V2000
  145.9350  142.9470   97.5280 C   0  0  0  0  0  1  0  0  0  0  0  0
  146.0340  141.8940   98.6310 C   0  0  2  0  0  3  0  0  0  0  0  0
  147.1500  140.8880   98.3180 C   0  0  0  0  0  2  0  0  0  0  0  0
  147.2250  139.7680   99.3560 C   0  0  0  0  0  2  0  0  0  0  0  0
  145.8700  139.0710   99.5120 C   0  0  2  0  0  3  0  0  0  0  0  0
  144.7620  140.0720   99.8740 C   0  0  2  0  0  3  0  0  0  0  0  0
  144.6830  141.1830   98.8220 C   0  0  0  0  0  2  0  0  0  0  0  0
  145.9540  137.9740  100.5430 C   0  0  0  0  0  0  0  0  0  0  0  0
  146.1870  138.1100  101.7350 O   0  0  0  0  0  0  0  0  0  0  0  0
  145.7310  136.7520  100.0230 O   0  0  0  0  0  0  0  0  0  0  0  0
  145.8280  136.1390  100.7830 H   0  0  0  0  0  0  0  0  0  0  0  0
  145.0100  140.6930  101.1380 O   0  0  0  0  0  0  0  0  0  0  0  0
  145.9790  140.8090  101.2130 H   0  0  0  0  0  0  0  0  0  0  0  0
  2  1  1  6  0  0  0
  2  7  1  0  0  0  0
  3  2  1  0  0  0  0
  3  4  1  0  0  0  0
  4  5  1  0  0  0  0
  5  6  1  0  0  0  0
  5  8  1  1  0  0  0
  6 12  1  1  0  0  0
  7  6  1  0  0  0  0
  8  9  2  0  0  0  0
 10  8  1  0  0  0  0
 10 11  1  0  0  0  0
 12 13  1  0  0  0  0
M  END
>  <MODEL>
2

>  <REMARK>
 VINA RESULT:      -4.6      1.465      2.214
  3 active torsions:
  status: ('A' for Active; 'I' for Inactive)
    1  A    between atoms: C_5  and  C_9 
    2  A    between atoms: C_6  and  O_8 
    3  A    between atoms: C_9  and  O_11 

>  <TORSDO>
F 3

$$$$
../results/processed/lowest_conf/7XP6/docked/b3.pdbqt
 OpenBabel07252415363D

 13 13  0  0  1  0  0  0  0  0999 V2000
  135.1890  131.7340   92.3300 C   0  0  0  0  0  1  0  0  0  0  0  0
  134.7460  130.3890   92.9060 C   0  0  2  0  0  3  0  0  0  0  0  0
  133.6890  129.7370   92.0040 C   0  0  0  0  0  2  0  0  0  0  0  0
  133.1590  128.4290   92.5910 C   0  0  0  0  0  2  0  0  0  0  0  0
  132.6300  128.6380   94.0120 C   0  0  2  0  0  3  0  0  0  0  0  0
  133.7040  129.2450   94.9280 C   0  0  2  0  0  3  0  0  0  0  0  0
  134.2210  130.5630   94.3420 C   0  0  0  0  0  2  0  0  0  0  0  0
  132.1160  127.3400   94.5830 C   0  0  0  0  0  0  0  0  0  0  0  0
  131.0880  127.1810   95.2240 O   0  0  0  0  0  0  0  0  0  0  0  0
  132.9220  126.2960   94.3120 O   0  0  0  0  0  0  0  0  0  0  0  0
  132.6230  125.5880   94.9210 H   0  0  0  0  0  0  0  0  0  0  0  0
  134.8250  128.3690   95.0720 O   0  0  0  0  0  0  0  0  0  0  0  0
  135.5710  128.7800   94.5880 H   0  0  0  0  0  0  0  0  0  0  0  0
  2  1  1  6  0  0  0
  2  7  1  0  0  0  0
  3  4  1  0  0  0  0
  3  2  1  0  0  0  0
  4  5  1  0  0  0  0
  5  8  1  1  0  0  0
  5  6  1  0  0  0  0
  6 12  1  6  0  0  0
  7  6  1  0  0  0  0
  8  9  2  0  0  0  0
 10  8  1  0  0  0  0
 10 11  1  0  0  0  0
 13 12  1  0  0  0  0
M  END
>  <MODEL>
3

>  <REMARK>
 VINA RESULT:      -4.6     16.580     17.911
  3 active torsions:
  status: ('A' for Active; 'I' for Inactive)
    1  A    between atoms: C_5  and  C_9 
    2  A    between atoms: C_6  and  O_8 
    3  A    between atoms: C_9  and  O_11 

>  <TORSDO>
F 3

$$$$
../results/processed/lowest_conf/7XP6/docked/b3.pdbqt
 OpenBabel07252415363D

 13 13  0  0  1  0  0  0  0  0999 V2000
  144.9410  140.4140   98.7190 C   0  0  0  0  0  1  0  0  0  0  0  0
  143.9390  141.4320   98.1760 C   0  0  2  0  0  3  0  0  0  0  0  0
  142.5080  140.8840   98.2690 C   0  0  0  0  0  2  0  0  0  0  0  0
  141.4840  141.8390   97.6570 C   0  0  0  0  0  2  0  0  0  0  0  0
  141.8550  142.1930   96.2140 C   0  0  2  0  0  3  0  0  0  0  0  0
  143.2690  142.7880   96.1280 C   0  0  2  0  0  3  0  0  0  0  0  0
  144.2920  141.8200   96.7290 C   0  0  0  0  0  2  0  0  0  0  0  0
  140.8420  143.1410   95.6230 C   0  0  0  0  0  0  0  0  0  0  0  0
  140.1660  142.9540   94.6230 O   0  0  0  0  0  0  0  0  0  0  0  0
  140.7220  144.2810   96.3280 O   0  0  0  0  0  0  0  0  0  0  0  0
  140.0590  144.8090   95.8340 H   0  0  0  0  0  0  0  0  0  0  0  0
  143.3640  144.0180   96.8500 O   0  0  0  0  0  0  0  0  0  0  0  0
  143.9400  144.6120   96.3260 H   0  0  0  0  0  0  0  0  0  0  0  0
  2  3  1  0  0  0  0
  2  1  1  6  0  0  0
  4  3  1  0  0  0  0
  5  8  1  1  0  0  0
  5  4  1  0  0  0  0
  6  5  1  0  0  0  0
  6  7  1  0  0  0  0
  6 12  1  1  0  0  0
  7  2  1  0  0  0  0
  8 10  1  0  0  0  0
  9  8  2  0  0  0  0
 11 10  1  0  0  0  0
 13 12  1  0  0  0  0
M  END
>  <MODEL>
4

>  <REMARK>
 VINA RESULT:      -4.4      5.142      6.441
  3 active torsions:
  status: ('A' for Active; 'I' for Inactive)
    1  A    between atoms: C_5  and  C_9 
    2  A    between atoms: C_6  and  O_8 
    3  A    between atoms: C_9  and  O_11 

>  <TORSDO>
F 3

$$$$
../results/processed/lowest_conf/7XP6/docked/b3.pdbqt
 OpenBabel07252415363D

 13 13  0  0  1  0  0  0  0  0999 V2000
  144.8190  140.8040   99.2320 C   0  0  0  0  0  1  0  0  0  0  0  0
  143.9100  141.1080   98.0430 C   0  0  2  0  0  3  0  0  0  0  0  0
  144.2340  142.4880   97.4540 C   0  0  0  0  0  2  0  0  0  0  0  0
  143.2880  142.8650   96.3140 C   0  0  0  0  0  2  0  0  0  0  0  0
  141.8260  142.7770   96.7600 C   0  0  2  0  0  3  0  0  0  0  0  0
  141.4880  141.3800   97.3030 C   0  0  2  0  0  3  0  0  0  0  0  0
  142.4300  141.0140   98.4550 C   0  0  0  0  0  2  0  0  0  0  0  0
  140.9020  143.1440   95.6260 C   0  0  0  0  0  0  0  0  0  0  0  0
  140.5210  142.4080   94.7280 O   0  0  0  0  0  0  0  0  0  0  0  0
  140.4940  144.4260   95.6810 O   0  0  0  0  0  0  0  0  0  0  0  0
  140.3130  144.6680   94.7470 H   0  0  0  0  0  0  0  0  0  0  0  0
  141.6320  140.3770   96.2950 O   0  0  0  0  0  0  0  0  0  0  0  0
  141.2000  140.7220   95.4870 H   0  0  0  0  0  0  0  0  0  0  0  0
  2  7  1  0  0  0  0
  2  1  1  1  0  0  0
  3  2  1  0  0  0  0
  4  5  1  0  0  0  0
  4  3  1  0  0  0  0
  5  8  1  6  0  0  0
  5  6  1  0  0  0  0
  6 12  1  6  0  0  0
  6  7  1  0  0  0  0
  8 10  1  0  0  0  0
  9  8  2  0  0  0  0
 11 10  1  0  0  0  0
 13 12  1  0  0  0  0
M  END
>  <MODEL>
5

>  <REMARK>
 VINA RESULT:      -4.4      5.011      6.491
  3 active torsions:
  status: ('A' for Active; 'I' for Inactive)
    1  A    between atoms: C_5  and  C_9 
    2  A    between atoms: C_6  and  O_8 
    3  A    between atoms: C_9  and  O_11 

>  <TORSDO>
F 3

$$$$
../results/processed/lowest_conf/7XP6/docked/b3.pdbqt
 OpenBabel07252415363D

 13 13  0  0  1  0  0  0  0  0999 V2000
  135.1680  131.9780   92.6400 C   0  0  0  0  0  1  0  0  0  0  0  0
  134.1660  130.9480   93.1590 C   0  0  2  0  0  3  0  0  0  0  0  0
  134.6360  130.3640   94.4980 C   0  0  0  0  0  2  0  0  0  0  0  0
  133.7020  129.2670   95.0090 C   0  0  0  0  0  2  0  0  0  0  0  0
  133.5120  128.1720   93.9560 C   0  0  2  0  0  3  0  0  0  0  0  0
  132.9940  128.7500   92.6300 C   0  0  2  0  0  3  0  0  0  0  0  0
  133.9430  129.8380   92.1170 C   0  0  0  0  0  2  0  0  0  0  0  0
  132.5830  127.0990   94.4670 C   0  0  0  0  0  0  0  0  0  0  0  0
  131.5180  127.2700   95.0410 O   0  0  0  0  0  0  0  0  0  0  0  0
  133.0390  125.8560   94.2240 O   0  0  0  0  0  0  0  0  0  0  0  0
  134.0110  125.9230   94.3320 H   0  0  0  0  0  0  0  0  0  0  0  0
  131.7030  129.3440   92.7870 O   0  0  0  0  0  0  0  0  0  0  0  0
  131.2120  128.7920   93.4310 H   0  0  0  0  0  0  0  0  0  0  0  0
  2  1  1  6  0  0  0
  2  3  1  0  0  0  0
  3  4  1  0  0  0  0
  5  8  1  1  0  0  0
  5  4  1  0  0  0  0
  6 12  1  1  0  0  0
  6  5  1  0  0  0  0
  7  6  1  0  0  0  0
  7  2  1  0  0  0  0
  8  9  2  0  0  0  0
 10 11  1  0  0  0  0
 10  8  1  0  0  0  0
 12 13  1  0  0  0  0
M  END
>  <MODEL>
6

>  <REMARK>
 VINA RESULT:      -4.3     16.672     17.934
  3 active torsions:
  status: ('A' for Active; 'I' for Inactive)
    1  A    between atoms: C_5  and  C_9 
    2  A    between atoms: C_6  and  O_8 
    3  A    between atoms: C_9  and  O_11 

>  <TORSDO>
F 3

$$$$
../results/processed/lowest_conf/7XP6/docked/b3.pdbqt
 OpenBabel07252415363D

 13 13  0  0  1  0  0  0  0  0999 V2000
  132.9060  127.0060   94.4620 C   0  0  0  0  0  1  0  0  0  0  0  0
  132.9860  128.5210   94.2790 C   0  0  2  0  0  3  0  0  0  0  0  0
  132.5550  128.9180   92.8600 C   0  0  0  0  0  2  0  0  0  0  0  0
  132.7020  130.4190   92.6110 C   0  0  0  0  0  2  0  0  0  0  0  0
  134.1270  130.8900   92.9160 C   0  0  2  0  0  3  0  0  0  0  0  0
  134.5400  130.5370   94.3520 C   0  0  2  0  0  3  0  0  0  0  0  0
  134.4050  129.0300   94.5910 C   0  0  0  0  0  2  0  0  0  0  0  0
  134.2580  132.3720   92.6730 C   0  0  0  0  0  0  0  0  0  0  0  0
  133.5130  133.0700   92.0030 O   0  0  0  0  0  0  0  0  0  0  0  0
  135.3240  132.9100   93.2970 O   0  0  0  0  0  0  0  0  0  0  0  0
  135.6510  132.1970   93.8860 H   0  0  0  0  0  0  0  0  0  0  0  0
  133.7150  131.2000   95.3130 O   0  0  0  0  0  0  0  0  0  0  0  0
  134.2900  131.8290   95.7960 H   0  0  0  0  0  0  0  0  0  0  0  0
  2  1  1  6  0  0  0
  2  7  1  0  0  0  0
  3  2  1  0  0  0  0
  4  3  1  0  0  0  0
  4  5  1  0  0  0  0
  5  8  1  1  0  0  0
  5  6  1  0  0  0  0
  6  7  1  0  0  0  0
  6 12  1  1  0  0  0
  8 10  1  0  0  0  0
  9  8  2  0  0  0  0
 10 11  1  0  0  0  0
 12 13  1  0  0  0  0
M  END
>  <MODEL>
7

>  <REMARK>
 VINA RESULT:      -4.3     15.777     17.329
  3 active torsions:
  status: ('A' for Active; 'I' for Inactive)
    1  A    between atoms: C_5  and  C_9 
    2  A    between atoms: C_6  and  O_8 
    3  A    between atoms: C_9  and  O_11 

>  <TORSDO>
F 3

$$$$
../results/processed/lowest_conf/7XP6/docked/b3.pdbqt
 OpenBabel07252415363D

 13 13  0  0  1  0  0  0  0  0999 V2000
  142.3090  139.2940  106.9930 C   0  0  0  0  0  1  0  0  0  0  0  0
  141.1410  138.6640  107.7500 C   0  0  2  0  0  3  0  0  0  0  0  0
  139.9420  139.6220  107.7860 C   0  0  0  0  0  2  0  0  0  0  0  0
  138.7810  139.0610  108.6080 C   0  0  0  0  0  2  0  0  0  0  0  0
  139.2380  138.6830  110.0190 C   0  0  2  0  0  3  0  0  0  0  0  0
  140.4060  137.6860  109.9830 C   0  0  2  0  0  3  0  0  0  0  0  0
  141.5720  138.2600  109.1710 C   0  0  0  0  0  2  0  0  0  0  0  0
  138.0870  138.1250  110.8180 C   0  0  0  0  0  0  0  0  0  0  0  0
  138.0330  138.0060  112.0320 O   0  0  0  0  0  0  0  0  0  0  0  0
  137.0500  137.7500  110.0450 O   0  0  0  0  0  0  0  0  0  0  0  0
  136.2950  138.2870  110.3670 H   0  0  0  0  0  0  0  0  0  0  0  0
  140.0230  136.4520  109.3720 O   0  0  0  0  0  0  0  0  0  0  0  0
  140.5310  136.3770  108.5390 H   0  0  0  0  0  0  0  0  0  0  0  0
  2  1  1  1  0  0  0
  2  3  1  0  0  0  0
  2  7  1  0  0  0  0
  3  4  1  0  0  0  0
  4  5  1  0  0  0  0
  5  8  1  1  0  0  0
  6 12  1  6  0  0  0
  6  5  1  0  0  0  0
  7  6  1  0  0  0  0
  8  9  2  0  0  0  0
 10 11  1  0  0  0  0
 10  8  1  0  0  0  0
 13 12  1  0  0  0  0
M  END
>  <MODEL>
8

>  <REMARK>
 VINA RESULT:      -4.3     10.935     12.208
  3 active torsions:
  status: ('A' for Active; 'I' for Inactive)
    1  A    between atoms: C_5  and  C_9 
    2  A    between atoms: C_6  and  O_8 
    3  A    between atoms: C_9  and  O_11 

>  <TORSDO>
F 3

$$$$
../results/processed/lowest_conf/7XP6/docked/b3.pdbqt
 OpenBabel07252415363D

 13 13  0  0  1  0  0  0  0  0999 V2000
  146.6590  137.8990  100.8820 C   0  0  0  0  0  1  0  0  0  0  0  0
  146.0530  138.8900   99.8890 C   0  0  2  0  0  3  0  0  0  0  0  0
  145.3950  140.0620  100.6300 C   0  0  0  0  0  2  0  0  0  0  0  0
  144.7030  141.0330   99.6740 C   0  0  0  0  0  2  0  0  0  0  0  0
  143.7000  140.3020   98.7790 C   0  0  2  0  0  3  0  0  0  0  0  0
  144.3690  139.1600   97.9990 C   0  0  2  0  0  3  0  0  0  0  0  0
  145.0470  138.1830   98.9640 C   0  0  0  0  0  2  0  0  0  0  0  0
  143.0290  141.2680   97.8350 C   0  0  0  0  0  0  0  0  0  0  0  0
  143.5820  142.0400   97.0660 O   0  0  0  0  0  0  0  0  0  0  0  0
  141.6850  141.2110   97.8990 O   0  0  0  0  0  0  0  0  0  0  0  0
  141.3820  141.5140   97.0160 H   0  0  0  0  0  0  0  0  0  0  0  0
  145.3730  139.6520   97.1090 O   0  0  0  0  0  0  0  0  0  0  0  0
  145.5000  140.6010   97.3190 H   0  0  0  0  0  0  0  0  0  0  0  0
  2  3  1  0  0  0  0
  2  1  1  1  0  0  0
  4  3  1  0  0  0  0
  5  8  1  6  0  0  0
  5  4  1  0  0  0  0
  6 12  1  6  0  0  0
  6  5  1  0  0  0  0
  6  7  1  0  0  0  0
  7  2  1  0  0  0  0
  8 10  1  0  0  0  0
  9  8  2  0  0  0  0
 11 10  1  0  0  0  0
 12 13  1  0  0  0  0
M  END
>  <MODEL>
9

>  <REMARK>
 VINA RESULT:      -4.1      2.557      4.242
  3 active torsions:
  status: ('A' for Active; 'I' for Inactive)
    1  A    between atoms: C_5  and  C_9 
    2  A    between atoms: C_6  and  O_8 
    3  A    between atoms: C_9  and  O_11 

>  <TORSDO>
F 3

$$$$
