../results/processed/lowest_conf/7XP6/docked/b3c.pdbqt
 OpenBabel07252415363D

 13 14  0  0  1  0  0  0  0  0999 V2000
  146.5460  137.9260  101.1030 C   0  0  0  0  0  1  0  0  0  0  0  0
  146.0860  138.2750   99.6930 C   0  0  1  0  0  3  0  0  0  0  0  0
  145.0040  137.3340   99.1760 C   0  0  0  0  0  2  0  0  0  0  0  0
  144.4330  138.1190   98.0810 N   0  0  0  0  0  0  0  0  0  0  0  0
  143.1970  137.5470   97.5680 C   0  0  0  0  0  1  0  0  0  0  0  0
  144.2450  139.4680   98.6280 C   0  0  0  0  0  2  0  0  0  0  0  0
  145.4350  139.6710   99.5900 C   0  0  2  0  0  3  0  0  0  0  0  0
  146.4130  140.7350   99.1540 C   0  0  0  0  0  0  0  0  0  0  0  0
  146.1310  142.0910   99.3500 C   0  0  0  0  0  3  0  0  0  0  0  0
  147.0490  143.0570   98.9490 C   0  0  0  0  0  3  0  0  0  0  0  0
  148.2320  142.6360   98.3660 C   0  0  0  0  0  3  0  0  0  0  0  0
  148.5480  141.3400   98.1640 N   0  0  0  0  0  0  0  0  0  0  0  0
  147.6380  140.4230   98.5650 C   0  0  0  0  0  3  0  0  0  0  0  0
  2  1  1  1  0  0  0
  3  2  1  0  0  0  0
  4  6  1  0  0  0  0
  4  3  1  0  0  0  0
  5  4  1  0  0  0  0
  6  7  1  0  0  0  0
  7  8  1  6  0  0  0
  7  2  1  0  0  0  0
  8  9  1  0  0  0  0
 10  9  2  0  0  0  0
 11 10  1  0  0  0  0
 12 11  2  0  0  0  0
 12 13  1  0  0  0  0
 13  8  2  0  0  0  0
M  END
>  <MODEL>
1

>  <REMARK>
 VINA RESULT:      -5.2      0.000      0.000
  1 active torsions:
  status: ('A' for Active; 'I' for Inactive)
    1  A    between atoms: C_7  and  C_8 

>  <TORSDO>
F 1

$$$$
../results/processed/lowest_conf/7XP6/docked/b3c.pdbqt
 OpenBabel07252415363D

 13 14  0  0  1  0  0  0  0  0999 V2000
  147.5790  140.4170   98.6810 C   0  0  0  0  0  1  0  0  0  0  0  0
  147.4050  141.6510   97.8060 C   0  0  1  0  0  3  0  0  0  0  0  0
  145.9450  141.9360   97.4690 C   0  0  0  0  0  2  0  0  0  0  0  0
  146.0080  143.3390   97.0600 N   0  0  0  0  0  0  0  0  0  0  0  0
  144.6890  143.9400   96.9220 C   0  0  0  0  0  1  0  0  0  0  0  0
  146.8260  144.0050   98.0810 C   0  0  0  0  0  2  0  0  0  0  0  0
  147.8830  142.9540   98.4830 C   0  0  2  0  0  3  0  0  0  0  0  0
  149.2980  143.3180   98.1040 C   0  0  0  0  0  0  0  0  0  0  0  0
  150.3830  142.8540   98.8550 C   0  0  0  0  0  3  0  0  0  0  0  0
  151.6810  143.1930   98.4840 C   0  0  0  0  0  3  0  0  0  0  0  0
  151.8570  143.9870   97.3640 C   0  0  0  0  0  3  0  0  0  0  0  0
  150.8410  144.4510   96.6070 N   0  0  0  0  0  0  0  0  0  0  0  0
  149.5910  144.1040   96.9900 C   0  0  0  0  0  3  0  0  0  0  0  0
  2  7  1  0  0  0  0
  2  1  1  1  0  0  0
  3  2  1  0  0  0  0
  4  3  1  0  0  0  0
  4  6  1  0  0  0  0
  5  4  1  0  0  0  0
  6  7  1  0  0  0  0
  7  8  1  6  0  0  0
  8  9  1  0  0  0  0
 10  9  2  0  0  0  0
 11 10  1  0  0  0  0
 12 13  1  0  0  0  0
 12 11  2  0  0  0  0
 13  8  2  0  0  0  0
M  END
>  <MODEL>
2

>  <REMARK>
 VINA RESULT:      -5.1      3.154      4.678
  1 active torsions:
  status: ('A' for Active; 'I' for Inactive)
    1  A    between atoms: C_7  and  C_8 

>  <TORSDO>
F 1

$$$$
../results/processed/lowest_conf/7XP6/docked/b3c.pdbqt
 OpenBabel07252415363D

 13 14  0  0  1  0  0  0  0  0999 V2000
  149.5500  142.9710   98.5610 C   0  0  0  0  0  1  0  0  0  0  0  0
  148.1100  142.9520   98.0630 C   0  0  1  0  0  3  0  0  0  0  0  0
  147.9230  143.7340   96.7680 C   0  0  0  0  0  2  0  0  0  0  0  0
  146.6540  143.1930   96.2810 N   0  0  0  0  0  0  0  0  0  0  0  0
  146.3620  143.5960   94.9130 C   0  0  0  0  0  1  0  0  0  0  0  0
  146.7720  141.7370   96.4250 C   0  0  0  0  0  2  0  0  0  0  0  0
  147.6040  141.5370   97.7100 C   0  0  2  0  0  3  0  0  0  0  0  0
  146.8480  140.8920   98.8470 C   0  0  0  0  0  0  0  0  0  0  0  0
  145.7940  141.5620   99.4770 C   0  0  0  0  0  3  0  0  0  0  0  0
  145.1040  140.9470  100.5180 C   0  0  0  0  0  3  0  0  0  0  0  0
  145.4860  139.6720  100.8970 C   0  0  0  0  0  3  0  0  0  0  0  0
  146.4930  138.9880  100.3140 N   0  0  0  0  0  0  0  0  0  0  0  0
  147.1450  139.6090   99.3050 C   0  0  0  0  0  3  0  0  0  0  0  0
  2  1  1  6  0  0  0
  3  2  1  0  0  0  0
  4  6  1  0  0  0  0
  4  3  1  0  0  0  0
  5  4  1  0  0  0  0
  6  7  1  0  0  0  0
  7  2  1  0  0  0  0
  7  8  1  1  0  0  0
  8 13  2  0  0  0  0
  8  9  1  0  0  0  0
  9 10  2  0  0  0  0
 10 11  1  0  0  0  0
 12 11  2  0  0  0  0
 13 12  1  0  0  0  0
M  END
>  <MODEL>
3

>  <REMARK>
 VINA RESULT:      -5.0      2.309      4.727
  1 active torsions:
  status: ('A' for Active; 'I' for Inactive)
    1  A    between atoms: C_7  and  C_8 

>  <TORSDO>
F 1

$$$$
../results/processed/lowest_conf/7XP6/docked/b3c.pdbqt
 OpenBabel07252415363D

 13 14  0  0  1  0  0  0  0  0999 V2000
  146.2240  143.6210   97.7250 C   0  0  0  0  0  1  0  0  0  0  0  0
  146.7800  142.5310   98.6320 C   0  0  1  0  0  3  0  0  0  0  0  0
  145.6850  141.7220   99.3200 C   0  0  0  0  0  2  0  0  0  0  0  0
  146.4190  140.5210   99.7200 N   0  0  0  0  0  0  0  0  0  0  0  0
  145.5400  139.4580  100.1850 C   0  0  0  0  0  1  0  0  0  0  0  0
  147.1980  140.1300   98.5390 C   0  0  0  0  0  2  0  0  0  0  0  0
  147.6000  141.4650   97.8750 C   0  0  2  0  0  3  0  0  0  0  0  0
  149.0830  141.7500   97.9000 C   0  0  0  0  0  0  0  0  0  0  0  0
  149.5850  142.8670   98.5760 C   0  0  0  0  0  3  0  0  0  0  0  0
  150.9560  143.1080   98.5950 C   0  0  0  0  0  3  0  0  0  0  0  0
  151.7890  142.2190   97.9380 C   0  0  0  0  0  3  0  0  0  0  0  0
  151.3470  141.1270   97.2790 N   0  0  0  0  0  0  0  0  0  0  0  0
  150.0110  140.9160   97.2790 C   0  0  0  0  0  3  0  0  0  0  0  0
  2  1  1  6  0  0  0
  2  3  1  0  0  0  0
  3  4  1  0  0  0  0
  4  5  1  0  0  0  0
  6  4  1  0  0  0  0
  7  8  1  1  0  0  0
  7  6  1  0  0  0  0
  7  2  1  0  0  0  0
  8  9  1  0  0  0  0
  9 10  2  0  0  0  0
 11 10  1  0  0  0  0
 12 13  1  0  0  0  0
 12 11  2  0  0  0  0
 13  8  2  0  0  0  0
M  END
>  <MODEL>
4

>  <REMARK>
 VINA RESULT:      -4.9      2.087      3.915
  1 active torsions:
  status: ('A' for Active; 'I' for Inactive)
    1  A    between atoms: C_7  and  C_8 

>  <TORSDO>
F 1

$$$$
../results/processed/lowest_conf/7XP6/docked/b3c.pdbqt
 OpenBabel07252415363D

 13 14  0  0  1  0  0  0  0  0999 V2000
  144.2060  142.7900   96.8820 C   0  0  0  0  0  1  0  0  0  0  0  0
  145.6820  142.4920   97.1110 C   0  0  1  0  0  3  0  0  0  0  0  0
  146.6000  143.4580   96.3690 C   0  0  0  0  0  2  0  0  0  0  0  0
  147.8600  143.2740   97.0900 N   0  0  0  0  0  0  0  0  0  0  0  0
  148.8560  144.2760   96.7380 C   0  0  0  0  0  1  0  0  0  0  0  0
  147.5020  143.3120   98.5130 C   0  0  0  0  0  2  0  0  0  0  0  0
  146.1140  142.6410   98.5860 C   0  0  2  0  0  3  0  0  0  0  0  0
  146.0970  141.3260   99.3290 C   0  0  0  0  0  0  0  0  0  0  0  0
  147.0030  140.3100   99.0070 C   0  0  0  0  0  3  0  0  0  0  0  0
  146.9770  139.1080   99.7090 C   0  0  0  0  0  3  0  0  0  0  0  0
  146.0440  138.9590  100.7200 C   0  0  0  0  0  3  0  0  0  0  0  0
  145.1560  139.9140  101.0670 N   0  0  0  0  0  0  0  0  0  0  0  0
  145.2050  141.0710  100.3700 C   0  0  0  0  0  3  0  0  0  0  0  0
  2  1  1  1  0  0  0
  2  7  1  0  0  0  0
  3  4  1  0  0  0  0
  3  2  1  0  0  0  0
  4  6  1  0  0  0  0
  5  4  1  0  0  0  0
  6  7  1  0  0  0  0
  7  8  1  6  0  0  0
  8 13  1  0  0  0  0
  9  8  2  0  0  0  0
  9 10  1  0  0  0  0
 10 11  2  0  0  0  0
 11 12  1  0  0  0  0
 13 12  2  0  0  0  0
M  END
>  <MODEL>
5

>  <REMARK>
 VINA RESULT:      -4.9      2.130      5.178
  1 active torsions:
  status: ('A' for Active; 'I' for Inactive)
    1  A    between atoms: C_7  and  C_8 

>  <TORSDO>
F 1

$$$$
../results/processed/lowest_conf/7XP6/docked/b3c.pdbqt
 OpenBabel07252415363D

 13 14  0  0  1  0  0  0  0  0999 V2000
  141.5050  140.9230   98.5190 C   0  0  0  0  0  1  0  0  0  0  0  0
  142.8540  140.9110   97.8110 C   0  0  1  0  0  3  0  0  0  0  0  0
  142.9850  142.0190   96.7710 C   0  0  0  0  0  2  0  0  0  0  0  0
  144.4360  142.0860   96.5970 N   0  0  0  0  0  0  0  0  0  0  0  0
  144.8540  143.2500   95.8300 C   0  0  0  0  0  1  0  0  0  0  0  0
  144.9910  142.0780   97.9560 C   0  0  0  0  0  2  0  0  0  0  0  0
  144.0450  141.1600   98.7600 C   0  0  2  0  0  3  0  0  0  0  0  0
  144.6820  139.8770   99.2390 C   0  0  0  0  0  0  0  0  0  0  0  0
  145.5140  139.8670  100.3630 C   0  0  0  0  0  3  0  0  0  0  0  0
  146.0850  138.6730  100.7940 C   0  0  0  0  0  3  0  0  0  0  0  0
  145.8010  137.5170  100.0870 C   0  0  0  0  0  3  0  0  0  0  0  0
  145.0000  137.4810   99.0020 N   0  0  0  0  0  0  0  0  0  0  0  0
  144.4580  138.6550   98.6070 C   0  0  0  0  0  3  0  0  0  0  0  0
  2  1  1  1  0  0  0
  2  7  1  0  0  0  0
  3  2  1  0  0  0  0
  4  3  1  0  0  0  0
  4  6  1  0  0  0  0
  5  4  1  0  0  0  0
  6  7  1  0  0  0  0
  7  8  1  6  0  0  0
  8  9  1  0  0  0  0
  9 10  2  0  0  0  0
 11 10  1  0  0  0  0
 12 11  2  0  0  0  0
 13 12  1  0  0  0  0
 13  8  2  0  0  0  0
M  END
>  <MODEL>
6

>  <REMARK>
 VINA RESULT:      -4.9      2.318      4.581
  1 active torsions:
  status: ('A' for Active; 'I' for Inactive)
    1  A    between atoms: C_7  and  C_8 

>  <TORSDO>
F 1

$$$$
../results/processed/lowest_conf/7XP6/docked/b3c.pdbqt
 OpenBabel07252415363D

 13 14  0  0  1  0  0  0  0  0999 V2000
  146.7430  138.1240  100.7770 C   0  0  0  0  0  1  0  0  0  0  0  0
  145.6410  138.8710  100.0370 C   0  0  1  0  0  3  0  0  0  0  0  0
  145.9950  140.3300   99.7690 C   0  0  0  0  0  2  0  0  0  0  0  0
  145.0530  140.6670   98.7010 N   0  0  0  0  0  0  0  0  0  0  0  0
  145.3490  141.9500   98.0790 C   0  0  0  0  0  1  0  0  0  0  0  0
  145.1260  139.5510   97.7510 C   0  0  0  0  0  2  0  0  0  0  0  0
  145.3530  138.3020   98.6310 C   0  0  2  0  0  3  0  0  0  0  0  0
  144.2040  137.3220   98.6280 C   0  0  0  0  0  0  0  0  0  0  0  0
  144.3900  136.0000   99.0440 C   0  0  0  0  0  3  0  0  0  0  0  0
  143.3170  135.1130   99.0420 C   0  0  0  0  0  3  0  0  0  0  0  0
  142.0820  135.5790   98.6260 C   0  0  0  0  0  3  0  0  0  0  0  0
  141.8570  136.8470   98.2220 N   0  0  0  0  0  0  0  0  0  0  0  0
  142.9170  137.6860   98.2360 C   0  0  0  0  0  3  0  0  0  0  0  0
  2  1  1  6  0  0  0
  3  2  1  0  0  0  0
  4  3  1  0  0  0  0
  5  4  1  0  0  0  0
  6  7  1  0  0  0  0
  6  4  1  0  0  0  0
  7  8  1  1  0  0  0
  7  2  1  0  0  0  0
  8  9  1  0  0  0  0
 10  9  2  0  0  0  0
 11 10  1  0  0  0  0
 12 13  1  0  0  0  0
 12 11  2  0  0  0  0
 13  8  2  0  0  0  0
M  END
>  <MODEL>
7

>  <REMARK>
 VINA RESULT:      -4.8      1.876      5.289
  1 active torsions:
  status: ('A' for Active; 'I' for Inactive)
    1  A    between atoms: C_7  and  C_8 

>  <TORSDO>
F 1

$$$$
../results/processed/lowest_conf/7XP6/docked/b3c.pdbqt
 OpenBabel07252415363D

 13 14  0  0  1  0  0  0  0  0999 V2000
  133.9990  126.9690   92.4570 C   0  0  0  0  0  1  0  0  0  0  0  0
  133.5050  128.1750   93.2460 C   0  0  1  0  0  3  0  0  0  0  0  0
  133.9690  128.1590   94.6990 C   0  0  0  0  0  2  0  0  0  0  0  0
  133.7850  129.5600   95.0790 N   0  0  0  0  0  0  0  0  0  0  0  0
  134.3950  129.8750   96.3630 C   0  0  0  0  0  1  0  0  0  0  0  0
  134.3590  130.3400   93.9760 C   0  0  0  0  0  2  0  0  0  0  0  0
  134.0410  129.5190   92.7080 C   0  0  2  0  0  3  0  0  0  0  0  0
  133.0750  130.1890   91.7600 C   0  0  0  0  0  0  0  0  0  0  0  0
  131.7110  129.8800   91.7910 C   0  0  0  0  0  3  0  0  0  0  0  0
  130.8350  130.5140   90.9140 C   0  0  0  0  0  3  0  0  0  0  0  0
  131.3500  131.4470   90.0310 C   0  0  0  0  0  3  0  0  0  0  0  0
  132.6570  131.7790   89.9720 N   0  0  0  0  0  0  0  0  0  0  0  0
  133.4840  131.1490   90.8350 C   0  0  0  0  0  3  0  0  0  0  0  0
  2  1  1  6  0  0  0
  2  3  1  0  0  0  0
  3  4  1  0  0  0  0
  4  5  1  0  0  0  0
  6  4  1  0  0  0  0
  7  8  1  6  0  0  0
  7  2  1  0  0  0  0
  7  6  1  0  0  0  0
  8  9  1  0  0  0  0
 10  9  2  0  0  0  0
 11 10  1  0  0  0  0
 12 11  2  0  0  0  0
 12 13  1  0  0  0  0
 13  8  2  0  0  0  0
M  END
>  <MODEL>
8

>  <REMARK>
 VINA RESULT:      -4.7     15.952     17.923
  1 active torsions:
  status: ('A' for Active; 'I' for Inactive)
    1  A    between atoms: C_7  and  C_8 

>  <TORSDO>
F 1

$$$$
../results/processed/lowest_conf/7XP6/docked/b3c.pdbqt
 OpenBabel07252415363D

 13 14  0  0  1  0  0  0  0  0999 V2000
  141.2310  142.5460   97.0150 C   0  0  0  0  0  1  0  0  0  0  0  0
  142.4980  141.7020   96.9640 C   0  0  1  0  0  3  0  0  0  0  0  0
  143.7530  142.5350   96.7260 C   0  0  0  0  0  2  0  0  0  0  0  0
  144.8010  141.6170   97.1730 N   0  0  0  0  0  0  0  0  0  0  0  0
  146.0990  142.2650   97.2870 C   0  0  0  0  0  1  0  0  0  0  0  0
  144.3260  141.0790   98.4540 C   0  0  0  0  0  2  0  0  0  0  0  0
  142.7960  140.9650   98.2870 C   0  0  2  0  0  3  0  0  0  0  0  0
  142.2740  139.5480   98.2900 C   0  0  0  0  0  0  0  0  0  0  0  0
  140.9200  139.2840   98.5200 C   0  0  0  0  0  3  0  0  0  0  0  0
  140.4570  137.9710   98.5100 C   0  0  0  0  0  3  0  0  0  0  0  0
  141.3650  136.9560   98.2650 C   0  0  0  0  0  3  0  0  0  0  0  0
  142.6780  137.1660   98.0330 N   0  0  0  0  0  0  0  0  0  0  0  0
  143.0990  138.4510   98.0470 C   0  0  0  0  0  3  0  0  0  0  0  0
  2  1  1  1  0  0  0
  2  7  1  0  0  0  0
  3  2  1  0  0  0  0
  3  4  1  0  0  0  0
  4  5  1  0  0  0  0
  4  6  1  0  0  0  0
  7  8  1  6  0  0  0
  7  6  1  0  0  0  0
  8  9  1  0  0  0  0
 10  9  2  0  0  0  0
 11 10  1  0  0  0  0
 12 13  1  0  0  0  0
 12 11  2  0  0  0  0
 13  8  2  0  0  0  0
M  END
>  <MODEL>
9

>  <REMARK>
 VINA RESULT:      -4.7      2.776      6.016
  1 active torsions:
  status: ('A' for Active; 'I' for Inactive)
    1  A    between atoms: C_7  and  C_8 

>  <TORSDO>
F 1

$$$$
