MODEL 1
REMARK VINA RESULT:      -4.8      0.000      0.000
REMARK  3 active torsions:
REMARK  status: ('A' for Active; 'I' for Inactive)
REMARK    1  A    between atoms: C_2  and  C_3 
REMARK    2  A    between atoms: C_2  and  N_9 
REMARK    3  A    between atoms: N_9  and  C_11 
ROOT
ATOM      1  C   UNL d   1     146.498 140.861  99.118  0.00  0.00    -0.036 A 
ATOM      2  C   UNL d   1     147.679 140.370  98.541  0.00  0.00     0.009 A 
ATOM      3  C   UNL d   1     148.677 141.245  98.102  0.00  0.00     0.001 A 
ATOM      4  C   UNL d   1     148.512 142.621  98.238  0.00  0.00     0.000 A 
ATOM      5  C   UNL d   1     147.351 143.126  98.816  0.00  0.00     0.001 A 
ATOM      6  C   UNL d   1     146.354 142.254  99.254  0.00  0.00     0.009 A 
ENDROOT
BRANCH   1   7
ATOM      7  C   UNL d   1     145.382 139.959  99.632  0.00  0.00     0.115 C 
ATOM      8  C   UNL d   1     144.039 140.101  98.901  0.00  0.00     0.037 C 
BRANCH   7   9
ATOM      9  N   UNL d   1     145.793 138.546  99.692  0.00  0.00    -0.355 N 
ATOM     10  C   UNL d   1     145.349 137.619  98.663  0.00  0.00     0.152 C 
BRANCH   9  11
ATOM     11  C   UNL d   1     146.370 138.066 100.852  0.00  0.00     0.351 C 
ATOM     12  O   UNL d   1     145.934 138.214 101.987  0.00  0.00    -0.284 OA
ENDBRANCH   9  11
ENDBRANCH   7   9
ENDBRANCH   1   7
TORSDOF 3
ENDMDL
MODEL 2
REMARK VINA RESULT:      -4.7      2.980      4.595
REMARK  3 active torsions:
REMARK  status: ('A' for Active; 'I' for Inactive)
REMARK    1  A    between atoms: C_2  and  C_3 
REMARK    2  A    between atoms: C_2  and  N_9 
REMARK    3  A    between atoms: N_9  and  C_11 
ROOT
ATOM      1  C   UNL d   1     146.558 141.510  99.141  0.00  0.00    -0.036 A 
ATOM      2  C   UNL d   1     147.283 140.323  98.956  0.00  0.00     0.009 A 
ATOM      3  C   UNL d   1     146.942 139.161  99.655  0.00  0.00     0.001 A 
ATOM      4  C   UNL d   1     145.871 139.168 100.545  0.00  0.00     0.000 A 
ATOM      5  C   UNL d   1     145.136 140.334 100.736  0.00  0.00     0.001 A 
ATOM      6  C   UNL d   1     145.475 141.494 100.039  0.00  0.00     0.009 A 
ENDROOT
BRANCH   1   7
ATOM      7  C   UNL d   1     146.869 142.803  98.396  0.00  0.00     0.115 C 
ATOM      8  C   UNL d   1     148.361 143.134  98.257  0.00  0.00     0.037 C 
BRANCH   7   9
ATOM      9  N   UNL d   1     146.199 142.863  97.085  0.00  0.00    -0.355 N 
ATOM     10  C   UNL d   1     146.868 142.334  95.907  0.00  0.00     0.152 C 
BRANCH   9  11
ATOM     11  C   UNL d   1     145.071 143.648  96.946  0.00  0.00     0.351 C 
ATOM     12  O   UNL d   1     143.912 143.259  97.007  0.00  0.00    -0.284 OA
ENDBRANCH   9  11
ENDBRANCH   7   9
ENDBRANCH   1   7
TORSDOF 3
ENDMDL
MODEL 3
REMARK VINA RESULT:      -4.6      2.891      4.582
REMARK  3 active torsions:
REMARK  status: ('A' for Active; 'I' for Inactive)
REMARK    1  A    between atoms: C_2  and  C_3 
REMARK    2  A    between atoms: C_2  and  N_9 
REMARK    3  A    between atoms: N_9  and  C_11 
ROOT
ATOM      1  C   UNL d   1     146.762 141.283  98.896  0.00  0.00    -0.036 A 
ATOM      2  C   UNL d   1     147.328 140.002  98.988  0.00  0.00     0.009 A 
ATOM      3  C   UNL d   1     146.815 139.057  99.881  0.00  0.00     0.001 A 
ATOM      4  C   UNL d   1     145.728 139.376 100.691  0.00  0.00     0.000 A 
ATOM      5  C   UNL d   1     145.148 140.638 100.608  0.00  0.00     0.001 A 
ATOM      6  C   UNL d   1     145.659 141.583  99.717  0.00  0.00     0.009 A 
ENDROOT
BRANCH   1   7
ATOM      7  C   UNL d   1     147.263 142.351  97.931  0.00  0.00     0.115 C 
ATOM      8  C   UNL d   1     146.901 143.794  98.309  0.00  0.00     0.037 C 
BRANCH   7   9
ATOM      9  N   UNL d   1     148.708 142.229  97.670  0.00  0.00    -0.355 N 
ATOM     10  C   UNL d   1     149.659 142.913  98.532  0.00  0.00     0.152 C 
BRANCH   9  11
ATOM     11  C   UNL d   1     149.127 141.690  96.468  0.00  0.00     0.351 C 
ATOM     12  O   UNL d   1     149.805 140.680  96.331  0.00  0.00    -0.284 OA
ENDBRANCH   9  11
ENDBRANCH   7   9
ENDBRANCH   1   7
TORSDOF 3
ENDMDL
MODEL 4
REMARK VINA RESULT:      -4.6      2.621      4.177
REMARK  3 active torsions:
REMARK  status: ('A' for Active; 'I' for Inactive)
REMARK    1  A    between atoms: C_2  and  C_3 
REMARK    2  A    between atoms: C_2  and  N_9 
REMARK    3  A    between atoms: N_9  and  C_11 
ROOT
ATOM      1  C   UNL d   1     149.440 143.278  98.129  0.00  0.00    -0.036 A 
ATOM      2  C   UNL d   1     149.699 144.232  97.133  0.00  0.00     0.009 A 
ATOM      3  C   UNL d   1     151.009 144.622  96.841  0.00  0.00     0.001 A 
ATOM      4  C   UNL d   1     152.078 144.063  97.536  0.00  0.00     0.000 A 
ATOM      5  C   UNL d   1     151.842 143.109  98.521  0.00  0.00     0.001 A 
ATOM      6  C   UNL d   1     150.534 142.719  98.814  0.00  0.00     0.009 A 
ENDROOT
BRANCH   1   7
ATOM      7  C   UNL d   1     148.037 142.797  98.481  0.00  0.00     0.115 C 
ATOM      8  C   UNL d   1     146.913 143.805  98.202  0.00  0.00     0.037 C 
BRANCH   7   9
ATOM      9  N   UNL d   1     147.728 141.493  97.870  0.00  0.00    -0.355 N 
ATOM     10  C   UNL d   1     147.494 141.402  96.438  0.00  0.00     0.152 C 
BRANCH   9  11
ATOM     11  C   UNL d   1     147.406 140.429  98.692  0.00  0.00     0.351 C 
ATOM     12  O   UNL d   1     146.526 140.419  99.543  0.00  0.00    -0.284 OA
ENDBRANCH   9  11
ENDBRANCH   7   9
ENDBRANCH   1   7
TORSDOF 3
ENDMDL
MODEL 5
REMARK VINA RESULT:      -4.5      1.454      1.976
REMARK  3 active torsions:
REMARK  status: ('A' for Active; 'I' for Inactive)
REMARK    1  A    between atoms: C_2  and  C_3 
REMARK    2  A    between atoms: C_2  and  N_9 
REMARK    3  A    between atoms: N_9  and  C_11 
ROOT
ATOM      1  C   UNL d   1     145.222 141.640  98.657  0.00  0.00    -0.036 A 
ATOM      2  C   UNL d   1     144.793 142.391  97.552  0.00  0.00     0.009 A 
ATOM      3  C   UNL d   1     145.492 143.533  97.150  0.00  0.00     0.001 A 
ATOM      4  C   UNL d   1     146.629 143.939  97.844  0.00  0.00     0.000 A 
ATOM      5  C   UNL d   1     147.074 143.203  98.937  0.00  0.00     0.001 A 
ATOM      6  C   UNL d   1     146.377 142.062  99.339  0.00  0.00     0.009 A 
ENDROOT
BRANCH   1   7
ATOM      7  C   UNL d   1     144.515 140.376  99.133  0.00  0.00     0.115 C 
ATOM      8  C   UNL d   1     143.156 140.101  98.474  0.00  0.00     0.037 C 
BRANCH   7   9
ATOM      9  N   UNL d   1     145.384 139.189  99.048  0.00  0.00    -0.355 N 
ATOM     10  C   UNL d   1     145.498 138.466  97.791  0.00  0.00     0.152 C 
BRANCH   9  11
ATOM     11  C   UNL d   1     145.866 138.628 100.215  0.00  0.00     0.351 C 
ATOM     12  O   UNL d   1     147.045 138.451 100.493  0.00  0.00    -0.284 OA
ENDBRANCH   9  11
ENDBRANCH   7   9
ENDBRANCH   1   7
TORSDOF 3
ENDMDL
MODEL 6
REMARK VINA RESULT:      -4.5      1.370      2.292
REMARK  3 active torsions:
REMARK  status: ('A' for Active; 'I' for Inactive)
REMARK    1  A    between atoms: C_2  and  C_3 
REMARK    2  A    between atoms: C_2  and  N_9 
REMARK    3  A    between atoms: N_9  and  C_11 
ROOT
ATOM      1  C   UNL d   1     146.653 141.077  99.194  0.00  0.00    -0.036 A 
ATOM      2  C   UNL d   1     146.664 142.479  99.132  0.00  0.00     0.009 A 
ATOM      3  C   UNL d   1     147.706 143.158  98.495  0.00  0.00     0.001 A 
ATOM      4  C   UNL d   1     148.749 142.447  97.906  0.00  0.00     0.000 A 
ATOM      5  C   UNL d   1     148.751 141.056  97.949  0.00  0.00     0.001 A 
ATOM      6  C   UNL d   1     147.711 140.377  98.586  0.00  0.00     0.009 A 
ENDROOT
BRANCH   1   7
ATOM      7  C   UNL d   1     145.538 140.278  99.858  0.00  0.00     0.115 C 
ATOM      8  C   UNL d   1     144.798 141.007 100.989  0.00  0.00     0.037 C 
BRANCH   7   9
ATOM      9  N   UNL d   1     144.582 139.738  98.876  0.00  0.00    -0.355 N 
ATOM     10  C   UNL d   1     143.535 140.594  98.339  0.00  0.00     0.152 C 
BRANCH   9  11
ATOM     11  C   UNL d   1     144.527 138.371  98.679  0.00  0.00     0.351 C 
ATOM     12  O   UNL d   1     145.366 137.558  99.043  0.00  0.00    -0.284 OA
ENDBRANCH   9  11
ENDBRANCH   7   9
ENDBRANCH   1   7
TORSDOF 3
ENDMDL
MODEL 7
REMARK VINA RESULT:      -4.5      2.858      4.396
REMARK  3 active torsions:
REMARK  status: ('A' for Active; 'I' for Inactive)
REMARK    1  A    between atoms: C_2  and  C_3 
REMARK    2  A    between atoms: C_2  and  N_9 
REMARK    3  A    between atoms: N_9  and  C_11 
ROOT
ATOM      1  C   UNL d   1     146.187 141.265  99.330  0.00  0.00    -0.036 A 
ATOM      2  C   UNL d   1     146.974 140.130  99.083  0.00  0.00     0.009 A 
ATOM      3  C   UNL d   1     146.828 138.976  99.859  0.00  0.00     0.001 A 
ATOM      4  C   UNL d   1     145.891 138.939 100.889  0.00  0.00     0.000 A 
ATOM      5  C   UNL d   1     145.096 140.052 101.143  0.00  0.00     0.001 A 
ATOM      6  C   UNL d   1     145.241 141.204 100.369  0.00  0.00     0.009 A 
ENDROOT
BRANCH   1   7
ATOM      7  C   UNL d   1     146.286 142.545  98.508  0.00  0.00     0.115 C 
ATOM      8  C   UNL d   1     147.672 143.206  98.495  0.00  0.00     0.037 C 
BRANCH   7   9
ATOM      9  N   UNL d   1     145.784 142.364  97.135  0.00  0.00    -0.355 N 
ATOM     10  C   UNL d   1     144.384 142.040  96.914  0.00  0.00     0.152 C 
BRANCH   9  11
ATOM     11  C   UNL d   1     146.694 142.243  96.101  0.00  0.00     0.351 C 
ATOM     12  O   UNL d   1     147.014 141.202  95.543  0.00  0.00    -0.284 OA
ENDBRANCH   9  11
ENDBRANCH   7   9
ENDBRANCH   1   7
TORSDOF 3
ENDMDL
MODEL 8
REMARK VINA RESULT:      -4.3      2.601      4.124
REMARK  3 active torsions:
REMARK  status: ('A' for Active; 'I' for Inactive)
REMARK    1  A    between atoms: C_2  and  C_3 
REMARK    2  A    between atoms: C_2  and  N_9 
REMARK    3  A    between atoms: N_9  and  C_11 
ROOT
ATOM      1  C   UNL d   1     143.476 140.873  98.041  0.00  0.00    -0.036 A 
ATOM      2  C   UNL d   1     144.257 141.795  97.327  0.00  0.00     0.009 A 
ATOM      3  C   UNL d   1     143.660 142.849  96.630  0.00  0.00     0.001 A 
ATOM      4  C   UNL d   1     142.276 143.000  96.640  0.00  0.00     0.000 A 
ATOM      5  C   UNL d   1     141.485 142.102  97.348  0.00  0.00     0.001 A 
ATOM      6  C   UNL d   1     142.080 141.048  98.045  0.00  0.00     0.009 A 
ENDROOT
BRANCH   1   7
ATOM      7  C   UNL d   1     144.067 139.714  98.835  0.00  0.00     0.115 C 
ATOM      8  C   UNL d   1     144.513 138.509  97.996  0.00  0.00     0.037 C 
BRANCH   7   9
ATOM      9  N   UNL d   1     145.150 140.152  99.732  0.00  0.00    -0.355 N 
ATOM     10  C   UNL d   1     144.875 141.125 100.777  0.00  0.00     0.152 C 
BRANCH   9  11
ATOM     11  C   UNL d   1     146.456 139.837  99.407  0.00  0.00     0.351 C 
ATOM     12  O   UNL d   1     147.264 140.585  98.871  0.00  0.00    -0.284 OA
ENDBRANCH   9  11
ENDBRANCH   7   9
ENDBRANCH   1   7
TORSDOF 3
ENDMDL
MODEL 9
REMARK VINA RESULT:      -4.3      3.237      4.453
REMARK  3 active torsions:
REMARK  status: ('A' for Active; 'I' for Inactive)
REMARK    1  A    between atoms: C_2  and  C_3 
REMARK    2  A    between atoms: C_2  and  N_9 
REMARK    3  A    between atoms: N_9  and  C_11 
ROOT
ATOM      1  C   UNL d   1     144.532 138.000  98.767  0.00  0.00    -0.036 A 
ATOM      2  C   UNL d   1     144.132 139.340  98.648  0.00  0.00     0.009 A 
ATOM      3  C   UNL d   1     144.674 140.324  99.480  0.00  0.00     0.001 A 
ATOM      4  C   UNL d   1     145.626 139.985 100.438  0.00  0.00     0.000 A 
ATOM      5  C   UNL d   1     146.042 138.663 100.565  0.00  0.00     0.001 A 
ATOM      6  C   UNL d   1     145.501 137.680  99.735  0.00  0.00     0.009 A 
ENDROOT
BRANCH   1   7
ATOM      7  C   UNL d   1     143.992 136.886  97.878  0.00  0.00     0.115 C 
ATOM      8  C   UNL d   1     145.035 135.859  97.413  0.00  0.00     0.037 C 
BRANCH   7   9
ATOM      9  N   UNL d   1     142.831 136.209  98.481  0.00  0.00    -0.355 N 
ATOM     10  C   UNL d   1     141.538 136.874  98.504  0.00  0.00     0.152 C 
BRANCH   9  11
ATOM     11  C   UNL d   1     143.039 135.075  99.244  0.00  0.00     0.351 C 
ATOM     12  O   UNL d   1     142.335 134.074  99.250  0.00  0.00    -0.284 OA
ENDBRANCH   9  11
ENDBRANCH   7   9
ENDBRANCH   1   7
TORSDOF 3
ENDMDL
