../results/processed/lowest_conf/7XP6/docked/b4.pdbqt
 OpenBabel07252415363D

 12 12  0  0  1  0  0  0  0  0999 V2000
  146.4980  140.8610   99.1180 C   0  0  0  0  0  0  0  0  0  0  0  0
  147.6790  140.3700   98.5410 C   0  0  0  0  0  3  0  0  0  0  0  0
  148.6770  141.2450   98.1020 C   0  0  0  0  0  3  0  0  0  0  0  0
  148.5120  142.6210   98.2380 C   0  0  0  0  0  3  0  0  0  0  0  0
  147.3510  143.1260   98.8160 C   0  0  0  0  0  3  0  0  0  0  0  0
  146.3540  142.2540   99.2540 C   0  0  0  0  0  3  0  0  0  0  0  0
  145.3820  139.9590   99.6320 C   0  0  1  0  0  3  0  0  0  0  0  0
  144.0390  140.1010   98.9010 C   0  0  0  0  0  1  0  0  0  0  0  0
  145.7930  138.5460   99.6920 N   0  0  0  0  0  0  0  0  0  0  0  0
  145.3490  137.6190   98.6630 C   0  0  0  0  0  1  0  0  0  0  0  0
  146.3700  138.0660  100.8520 C   0  0  0  0  0  3  0  0  0  0  0  0
  145.9340  138.2140  101.9870 O   0  0  0  0  0  0  0  0  0  0  0  0
  1  6  1  0  0  0  0
  1  7  1  0  0  0  0
  2  1  2  0  0  0  0
  3  4  2  0  0  0  0
  3  2  1  0  0  0  0
  4  5  1  0  0  0  0
  5  6  2  0  0  0  0
  7  8  1  6  0  0  0
  7  9  1  0  0  0  0
  9 11  1  0  0  0  0
 10  9  1  0  0  0  0
 11 12  2  0  0  0  0
M  END
>  <MODEL>
1

>  <REMARK>
 VINA RESULT:      -4.8      0.000      0.000
  3 active torsions:
  status: ('A' for Active; 'I' for Inactive)
    1  A    between atoms: C_2  and  C_3 
    2  A    between atoms: C_2  and  N_9 
    3  A    between atoms: N_9  and  C_11 

>  <TORSDO>
F 3

$$$$
../results/processed/lowest_conf/7XP6/docked/b4.pdbqt
 OpenBabel07252415363D

 12 12  0  0  1  0  0  0  0  0999 V2000
  146.5580  141.5100   99.1410 C   0  0  0  0  0  0  0  0  0  0  0  0
  147.2830  140.3230   98.9560 C   0  0  0  0  0  3  0  0  0  0  0  0
  146.9420  139.1610   99.6550 C   0  0  0  0  0  3  0  0  0  0  0  0
  145.8710  139.1680  100.5450 C   0  0  0  0  0  3  0  0  0  0  0  0
  145.1360  140.3340  100.7360 C   0  0  0  0  0  3  0  0  0  0  0  0
  145.4750  141.4940  100.0390 C   0  0  0  0  0  3  0  0  0  0  0  0
  146.8690  142.8030   98.3960 C   0  0  1  0  0  3  0  0  0  0  0  0
  148.3610  143.1340   98.2570 C   0  0  0  0  0  1  0  0  0  0  0  0
  146.1990  142.8630   97.0850 N   0  0  0  0  0  0  0  0  0  0  0  0
  146.8680  142.3340   95.9070 C   0  0  0  0  0  1  0  0  0  0  0  0
  145.0710  143.6480   96.9460 C   0  0  0  0  0  3  0  0  0  0  0  0
  143.9120  143.2590   97.0070 O   0  0  0  0  0  0  0  0  0  0  0  0
  1  6  1  0  0  0  0
  2  1  2  0  0  0  0
  2  3  1  0  0  0  0
  3  4  2  0  0  0  0
  4  5  1  0  0  0  0
  6  5  2  0  0  0  0
  7  8  1  6  0  0  0
  7  1  1  0  0  0  0
  9  7  1  0  0  0  0
 10  9  1  0  0  0  0
 11 12  2  0  0  0  0
 11  9  1  0  0  0  0
M  END
>  <MODEL>
2

>  <REMARK>
 VINA RESULT:      -4.7      2.980      4.595
  3 active torsions:
  status: ('A' for Active; 'I' for Inactive)
    1  A    between atoms: C_2  and  C_3 
    2  A    between atoms: C_2  and  N_9 
    3  A    between atoms: N_9  and  C_11 

>  <TORSDO>
F 3

$$$$
../results/processed/lowest_conf/7XP6/docked/b4.pdbqt
 OpenBabel07252415363D

 12 12  0  0  1  0  0  0  0  0999 V2000
  146.7620  141.2830   98.8960 C   0  0  0  0  0  0  0  0  0  0  0  0
  147.3280  140.0020   98.9880 C   0  0  0  0  0  3  0  0  0  0  0  0
  146.8150  139.0570   99.8810 C   0  0  0  0  0  3  0  0  0  0  0  0
  145.7280  139.3760  100.6910 C   0  0  0  0  0  3  0  0  0  0  0  0
  145.1480  140.6380  100.6080 C   0  0  0  0  0  3  0  0  0  0  0  0
  145.6590  141.5830   99.7170 C   0  0  0  0  0  3  0  0  0  0  0  0
  147.2630  142.3510   97.9310 C   0  0  1  0  0  3  0  0  0  0  0  0
  146.9010  143.7940   98.3090 C   0  0  0  0  0  1  0  0  0  0  0  0
  148.7080  142.2290   97.6700 N   0  0  0  0  0  0  0  0  0  0  0  0
  149.6590  142.9130   98.5320 C   0  0  0  0  0  1  0  0  0  0  0  0
  149.1270  141.6900   96.4680 C   0  0  0  0  0  3  0  0  0  0  0  0
  149.8050  140.6800   96.3310 O   0  0  0  0  0  0  0  0  0  0  0  0
  1  2  2  0  0  0  0
  1  6  1  0  0  0  0
  2  3  1  0  0  0  0
  3  4  2  0  0  0  0
  5  4  1  0  0  0  0
  6  5  2  0  0  0  0
  7  8  1  1  0  0  0
  7  1  1  0  0  0  0
  9  7  1  0  0  0  0
  9 10  1  0  0  0  0
 11  9  1  0  0  0  0
 12 11  2  0  0  0  0
M  END
>  <MODEL>
3

>  <REMARK>
 VINA RESULT:      -4.6      2.891      4.582
  3 active torsions:
  status: ('A' for Active; 'I' for Inactive)
    1  A    between atoms: C_2  and  C_3 
    2  A    between atoms: C_2  and  N_9 
    3  A    between atoms: N_9  and  C_11 

>  <TORSDO>
F 3

$$$$
../results/processed/lowest_conf/7XP6/docked/b4.pdbqt
 OpenBabel07252415363D

 12 12  0  0  1  0  0  0  0  0999 V2000
  149.4400  143.2780   98.1290 C   0  0  0  0  0  0  0  0  0  0  0  0
  149.6990  144.2320   97.1330 C   0  0  0  0  0  3  0  0  0  0  0  0
  151.0090  144.6220   96.8410 C   0  0  0  0  0  3  0  0  0  0  0  0
  152.0780  144.0630   97.5360 C   0  0  0  0  0  3  0  0  0  0  0  0
  151.8420  143.1090   98.5210 C   0  0  0  0  0  3  0  0  0  0  0  0
  150.5340  142.7190   98.8140 C   0  0  0  0  0  3  0  0  0  0  0  0
  148.0370  142.7970   98.4810 C   0  0  1  0  0  3  0  0  0  0  0  0
  146.9130  143.8050   98.2020 C   0  0  0  0  0  1  0  0  0  0  0  0
  147.7280  141.4930   97.8700 N   0  0  0  0  0  0  0  0  0  0  0  0
  147.4940  141.4020   96.4380 C   0  0  0  0  0  1  0  0  0  0  0  0
  147.4060  140.4290   98.6920 C   0  0  0  0  0  3  0  0  0  0  0  0
  146.5260  140.4190   99.5430 O   0  0  0  0  0  0  0  0  0  0  0  0
  1  7  1  0  0  0  0
  1  6  1  0  0  0  0
  2  1  2  0  0  0  0
  3  2  1  0  0  0  0
  3  4  2  0  0  0  0
  4  5  1  0  0  0  0
  5  6  2  0  0  0  0
  7  8  1  6  0  0  0
  9  7  1  0  0  0  0
  9 11  1  0  0  0  0
 10  9  1  0  0  0  0
 11 12  2  0  0  0  0
M  END
>  <MODEL>
4

>  <REMARK>
 VINA RESULT:      -4.6      2.621      4.177
  3 active torsions:
  status: ('A' for Active; 'I' for Inactive)
    1  A    between atoms: C_2  and  C_3 
    2  A    between atoms: C_2  and  N_9 
    3  A    between atoms: N_9  and  C_11 

>  <TORSDO>
F 3

$$$$
../results/processed/lowest_conf/7XP6/docked/b4.pdbqt
 OpenBabel07252415363D

 12 12  0  0  1  0  0  0  0  0999 V2000
  145.2220  141.6400   98.6570 C   0  0  0  0  0  0  0  0  0  0  0  0
  144.7930  142.3910   97.5520 C   0  0  0  0  0  3  0  0  0  0  0  0
  145.4920  143.5330   97.1500 C   0  0  0  0  0  3  0  0  0  0  0  0
  146.6290  143.9390   97.8440 C   0  0  0  0  0  3  0  0  0  0  0  0
  147.0740  143.2030   98.9370 C   0  0  0  0  0  3  0  0  0  0  0  0
  146.3770  142.0620   99.3390 C   0  0  0  0  0  3  0  0  0  0  0  0
  144.5150  140.3760   99.1330 C   0  0  1  0  0  3  0  0  0  0  0  0
  143.1560  140.1010   98.4740 C   0  0  0  0  0  1  0  0  0  0  0  0
  145.3840  139.1890   99.0480 N   0  0  0  0  0  0  0  0  0  0  0  0
  145.4980  138.4660   97.7910 C   0  0  0  0  0  1  0  0  0  0  0  0
  145.8660  138.6280  100.2150 C   0  0  0  0  0  3  0  0  0  0  0  0
  147.0450  138.4510  100.4930 O   0  0  0  0  0  0  0  0  0  0  0  0
  1  7  1  0  0  0  0
  1  6  1  0  0  0  0
  2  1  2  0  0  0  0
  3  2  1  0  0  0  0
  3  4  2  0  0  0  0
  4  5  1  0  0  0  0
  5  6  2  0  0  0  0
  7  8  1  6  0  0  0
  9  7  1  0  0  0  0
  9 11  1  0  0  0  0
 10  9  1  0  0  0  0
 11 12  2  0  0  0  0
M  END
>  <MODEL>
5

>  <REMARK>
 VINA RESULT:      -4.5      1.454      1.976
  3 active torsions:
  status: ('A' for Active; 'I' for Inactive)
    1  A    between atoms: C_2  and  C_3 
    2  A    between atoms: C_2  and  N_9 
    3  A    between atoms: N_9  and  C_11 

>  <TORSDO>
F 3

$$$$
../results/processed/lowest_conf/7XP6/docked/b4.pdbqt
 OpenBabel07252415363D

 12 12  0  0  1  0  0  0  0  0999 V2000
  146.6530  141.0770   99.1940 C   0  0  0  0  0  0  0  0  0  0  0  0
  146.6640  142.4790   99.1320 C   0  0  0  0  0  3  0  0  0  0  0  0
  147.7060  143.1580   98.4950 C   0  0  0  0  0  3  0  0  0  0  0  0
  148.7490  142.4470   97.9060 C   0  0  0  0  0  3  0  0  0  0  0  0
  148.7510  141.0560   97.9490 C   0  0  0  0  0  3  0  0  0  0  0  0
  147.7110  140.3770   98.5860 C   0  0  0  0  0  3  0  0  0  0  0  0
  145.5380  140.2780   99.8580 C   0  0  1  0  0  3  0  0  0  0  0  0
  144.7980  141.0070  100.9890 C   0  0  0  0  0  1  0  0  0  0  0  0
  144.5820  139.7380   98.8760 N   0  0  0  0  0  0  0  0  0  0  0  0
  143.5350  140.5940   98.3390 C   0  0  0  0  0  1  0  0  0  0  0  0
  144.5270  138.3710   98.6790 C   0  0  0  0  0  3  0  0  0  0  0  0
  145.3660  137.5580   99.0430 O   0  0  0  0  0  0  0  0  0  0  0  0
  1  7  1  0  0  0  0
  2  1  1  0  0  0  0
  3  2  2  0  0  0  0
  4  5  2  0  0  0  0
  4  3  1  0  0  0  0
  5  6  1  0  0  0  0
  6  1  2  0  0  0  0
  7  8  1  1  0  0  0
  9  7  1  0  0  0  0
 10  9  1  0  0  0  0
 11  9  1  0  0  0  0
 11 12  2  0  0  0  0
M  END
>  <MODEL>
6

>  <REMARK>
 VINA RESULT:      -4.5      1.370      2.292
  3 active torsions:
  status: ('A' for Active; 'I' for Inactive)
    1  A    between atoms: C_2  and  C_3 
    2  A    between atoms: C_2  and  N_9 
    3  A    between atoms: N_9  and  C_11 

>  <TORSDO>
F 3

$$$$
../results/processed/lowest_conf/7XP6/docked/b4.pdbqt
 OpenBabel07252415363D

 12 12  0  0  1  0  0  0  0  0999 V2000
  146.1870  141.2650   99.3300 C   0  0  0  0  0  0  0  0  0  0  0  0
  146.9740  140.1300   99.0830 C   0  0  0  0  0  3  0  0  0  0  0  0
  146.8280  138.9760   99.8590 C   0  0  0  0  0  3  0  0  0  0  0  0
  145.8910  138.9390  100.8890 C   0  0  0  0  0  3  0  0  0  0  0  0
  145.0960  140.0520  101.1430 C   0  0  0  0  0  3  0  0  0  0  0  0
  145.2410  141.2040  100.3690 C   0  0  0  0  0  3  0  0  0  0  0  0
  146.2860  142.5450   98.5080 C   0  0  1  0  0  3  0  0  0  0  0  0
  147.6720  143.2060   98.4950 C   0  0  0  0  0  1  0  0  0  0  0  0
  145.7840  142.3640   97.1350 N   0  0  0  0  0  0  0  0  0  0  0  0
  144.3840  142.0400   96.9140 C   0  0  0  0  0  1  0  0  0  0  0  0
  146.6940  142.2430   96.1010 C   0  0  0  0  0  3  0  0  0  0  0  0
  147.0140  141.2020   95.5430 O   0  0  0  0  0  0  0  0  0  0  0  0
  1  6  1  0  0  0  0
  2  1  2  0  0  0  0
  2  3  1  0  0  0  0
  3  4  2  0  0  0  0
  4  5  1  0  0  0  0
  6  5  2  0  0  0  0
  7  8  1  6  0  0  0
  7  1  1  0  0  0  0
  9  7  1  0  0  0  0
 10  9  1  0  0  0  0
 11  9  1  0  0  0  0
 12 11  2  0  0  0  0
M  END
>  <MODEL>
7

>  <REMARK>
 VINA RESULT:      -4.5      2.858      4.396
  3 active torsions:
  status: ('A' for Active; 'I' for Inactive)
    1  A    between atoms: C_2  and  C_3 
    2  A    between atoms: C_2  and  N_9 
    3  A    between atoms: N_9  and  C_11 

>  <TORSDO>
F 3

$$$$
../results/processed/lowest_conf/7XP6/docked/b4.pdbqt
 OpenBabel07252415363D

 12 12  0  0  1  0  0  0  0  0999 V2000
  143.4760  140.8730   98.0410 C   0  0  0  0  0  0  0  0  0  0  0  0
  144.2570  141.7950   97.3270 C   0  0  0  0  0  3  0  0  0  0  0  0
  143.6600  142.8490   96.6300 C   0  0  0  0  0  3  0  0  0  0  0  0
  142.2760  143.0000   96.6400 C   0  0  0  0  0  3  0  0  0  0  0  0
  141.4850  142.1020   97.3480 C   0  0  0  0  0  3  0  0  0  0  0  0
  142.0800  141.0480   98.0450 C   0  0  0  0  0  3  0  0  0  0  0  0
  144.0670  139.7140   98.8350 C   0  0  1  0  0  3  0  0  0  0  0  0
  144.5130  138.5090   97.9960 C   0  0  0  0  0  1  0  0  0  0  0  0
  145.1500  140.1520   99.7320 N   0  0  0  0  0  0  0  0  0  0  0  0
  144.8750  141.1250  100.7770 C   0  0  0  0  0  1  0  0  0  0  0  0
  146.4560  139.8370   99.4070 C   0  0  0  0  0  3  0  0  0  0  0  0
  147.2640  140.5850   98.8710 O   0  0  0  0  0  0  0  0  0  0  0  0
  1  6  1  0  0  0  0
  1  7  1  0  0  0  0
  2  1  2  0  0  0  0
  3  4  2  0  0  0  0
  3  2  1  0  0  0  0
  4  5  1  0  0  0  0
  5  6  2  0  0  0  0
  7  8  1  6  0  0  0
  7  9  1  0  0  0  0
  9 10  1  0  0  0  0
 11  9  1  0  0  0  0
 12 11  2  0  0  0  0
M  END
>  <MODEL>
8

>  <REMARK>
 VINA RESULT:      -4.3      2.601      4.124
  3 active torsions:
  status: ('A' for Active; 'I' for Inactive)
    1  A    between atoms: C_2  and  C_3 
    2  A    between atoms: C_2  and  N_9 
    3  A    between atoms: N_9  and  C_11 

>  <TORSDO>
F 3

$$$$
../results/processed/lowest_conf/7XP6/docked/b4.pdbqt
 OpenBabel07252415363D

 12 12  0  0  1  0  0  0  0  0999 V2000
  144.5320  138.0000   98.7670 C   0  0  0  0  0  0  0  0  0  0  0  0
  144.1320  139.3400   98.6480 C   0  0  0  0  0  3  0  0  0  0  0  0
  144.6740  140.3240   99.4800 C   0  0  0  0  0  3  0  0  0  0  0  0
  145.6260  139.9850  100.4380 C   0  0  0  0  0  3  0  0  0  0  0  0
  146.0420  138.6630  100.5650 C   0  0  0  0  0  3  0  0  0  0  0  0
  145.5010  137.6800   99.7350 C   0  0  0  0  0  3  0  0  0  0  0  0
  143.9920  136.8860   97.8780 C   0  0  1  0  0  3  0  0  0  0  0  0
  145.0350  135.8590   97.4130 C   0  0  0  0  0  1  0  0  0  0  0  0
  142.8310  136.2090   98.4810 N   0  0  0  0  0  0  0  0  0  0  0  0
  141.5380  136.8740   98.5040 C   0  0  0  0  0  1  0  0  0  0  0  0
  143.0390  135.0750   99.2440 C   0  0  0  0  0  3  0  0  0  0  0  0
  142.3350  134.0740   99.2500 O   0  0  0  0  0  0  0  0  0  0  0  0
  1  6  1  0  0  0  0
  2  1  2  0  0  0  0
  2  3  1  0  0  0  0
  3  4  2  0  0  0  0
  4  5  1  0  0  0  0
  6  5  2  0  0  0  0
  7  8  1  1  0  0  0
  7  9  1  0  0  0  0
  7  1  1  0  0  0  0
  9 10  1  0  0  0  0
  9 11  1  0  0  0  0
 11 12  2  0  0  0  0
M  END
>  <MODEL>
9

>  <REMARK>
 VINA RESULT:      -4.3      3.237      4.453
  3 active torsions:
  status: ('A' for Active; 'I' for Inactive)
    1  A    between atoms: C_2  and  C_3 
    2  A    between atoms: C_2  and  N_9 
    3  A    between atoms: N_9  and  C_11 

>  <TORSDO>
F 3

$$$$
