../results/processed/lowest_conf/7XP6/docked/b4c.pdbqt
 OpenBabel07252415363D

 17 17  0  0  1  0  0  0  0  0999 V2000
  145.0210  139.8940   99.3780 N   0  0  0  0  0  0  0  0  0  0  0  0
  144.7980  138.9830   99.7760 H   0  0  0  0  0  0  0  0  0  0  0  0
  146.4500  140.1960   99.6060 C   0  0  2  0  0  3  0  0  0  0  0  0
  147.0790  140.7570   98.3230 C   0  0  0  0  0  1  0  0  0  0  0  0
  147.1320  138.8880  100.0340 C   0  0  0  0  0  2  0  0  0  0  0  0
  146.2430  138.0310  100.8950 C   0  0  0  0  0  0  0  0  0  0  0  0
  145.8590  138.2530  102.0300 O   0  0  0  0  0  0  0  0  0  0  0  0
  145.8600  136.9060  100.2560 O   0  0  0  0  0  0  0  0  0  0  0  0
  145.1630  136.5310  100.8340 H   0  0  0  0  0  0  0  0  0  0  0  0
  144.6330  139.9160   97.9570 C   0  0  1  0  0  3  0  0  0  0  0  0
  144.2050  138.5030   97.5390 C   0  0  0  0  0  1  0  0  0  0  0  0
  143.5060  140.8970   97.6730 C   0  0  0  0  0  0  0  0  0  0  0  0
  142.2060  140.6780   98.1570 C   0  0  0  0  0  3  0  0  0  0  0  0
  141.1800  141.5830   97.8780 C   0  0  0  0  0  3  0  0  0  0  0  0
  141.4400  142.7170   97.1110 C   0  0  0  0  0  3  0  0  0  0  0  0
  142.7240  142.9470   96.6230 C   0  0  0  0  0  3  0  0  0  0  0  0
  143.7510  142.0430   96.9000 C   0  0  0  0  0  3  0  0  0  0  0  0
  1  3  1  0  0  0  0
  1  2  1  0  0  0  0
  3  4  1  6  0  0  0
  3  5  1  0  0  0  0
  5  6  1  0  0  0  0
  6  7  2  0  0  0  0
  8  9  1  0  0  0  0
  8  6  1  0  0  0  0
 10 11  1  1  0  0  0
 10  1  1  0  0  0  0
 12 10  1  0  0  0  0
 12 13  1  0  0  0  0
 14 13  2  0  0  0  0
 15 14  1  0  0  0  0
 16 17  1  0  0  0  0
 16 15  2  0  0  0  0
 17 12  2  0  0  0  0
M  END
>  <MODEL>
1

>  <REMARK>
 VINA RESULT:      -5.3      0.000      0.000
  6 active torsions:
  status: ('A' for Active; 'I' for Inactive)
    1  A    between atoms: C_2  and  C_3 
    2  A    between atoms: C_2  and  N_7 
    3  A    between atoms: C_3  and  C_4 
    4  A    between atoms: C_4  and  O_6 
    5  A    between atoms: N_7  and  C_8 
    6  A    between atoms: C_8  and  C_10 

>  <TORSDO>
F 6

$$$$
../results/processed/lowest_conf/7XP6/docked/b4c.pdbqt
 OpenBabel07252415363D

 17 17  0  0  1  0  0  0  0  0999 V2000
  146.6090  139.6970   98.2170 N   0  0  0  0  0  0  0  0  0  0  0  0
  147.4800  139.1930   98.0570 H   0  0  0  0  0  0  0  0  0  0  0  0
  146.0440  139.3070   99.5260 C   0  0  2  0  0  3  0  0  0  0  0  0
  147.0980  138.5540  100.3490 C   0  0  0  0  0  1  0  0  0  0  0  0
  144.8180  138.4240   99.2510 C   0  0  0  0  0  2  0  0  0  0  0  0
  145.1860  137.1100   98.6150 C   0  0  0  0  0  0  0  0  0  0  0  0
  145.5330  136.9040   97.4650 O   0  0  0  0  0  0  0  0  0  0  0  0
  145.1100  136.0890   99.4940 O   0  0  0  0  0  0  0  0  0  0  0  0
  144.6980  135.3640   98.9790 H   0  0  0  0  0  0  0  0  0  0  0  0
  146.8500  141.1450   98.0860 C   0  0  1  0  0  3  0  0  0  0  0  0
  146.1020  141.8750   99.2090 C   0  0  0  0  0  1  0  0  0  0  0  0
  148.3270  141.5000   98.1400 C   0  0  0  0  0  0  0  0  0  0  0  0
  149.3200  140.5420   97.8820 C   0  0  0  0  0  3  0  0  0  0  0  0
  150.6730  140.8810   97.9460 C   0  0  0  0  0  3  0  0  0  0  0  0
  151.0500  142.1820   98.2700 C   0  0  0  0  0  3  0  0  0  0  0  0
  150.0780  143.1450   98.5310 C   0  0  0  0  0  3  0  0  0  0  0  0
  148.7240  142.8060   98.4670 C   0  0  0  0  0  3  0  0  0  0  0  0
  1  3  1  0  0  0  0
  2  1  1  0  0  0  0
  3  4  1  1  0  0  0
  5  3  1  0  0  0  0
  6  5  1  0  0  0  0
  6  8  1  0  0  0  0
  7  6  2  0  0  0  0
  9  8  1  0  0  0  0
 10 12  1  0  0  0  0
 10  1  1  0  0  0  0
 10 11  1  1  0  0  0
 12 17  1  0  0  0  0
 13 14  1  0  0  0  0
 13 12  2  0  0  0  0
 14 15  2  0  0  0  0
 15 16  1  0  0  0  0
 17 16  2  0  0  0  0
M  END
>  <MODEL>
2

>  <REMARK>
 VINA RESULT:      -5.1      2.973      5.295
  6 active torsions:
  status: ('A' for Active; 'I' for Inactive)
    1  A    between atoms: C_2  and  C_3 
    2  A    between atoms: C_2  and  N_7 
    3  A    between atoms: C_3  and  C_4 
    4  A    between atoms: C_4  and  O_6 
    5  A    between atoms: N_7  and  C_8 
    6  A    between atoms: C_8  and  C_10 

>  <TORSDO>
F 6

$$$$
../results/processed/lowest_conf/7XP6/docked/b4c.pdbqt
 OpenBabel07252415363D

 17 17  0  0  1  0  0  0  0  0999 V2000
  145.2260  135.6270   98.4460 N   0  0  0  0  0  0  0  0  0  0  0  0
  145.3020  135.7660   99.4530 H   0  0  0  0  0  0  0  0  0  0  0  0
  144.0110  134.8410   98.1460 C   0  0  2  0  0  3  0  0  0  0  0  0
  143.0730  134.8390   99.3590 C   0  0  0  0  0  1  0  0  0  0  0  0
  144.4640  133.4170   97.7900 C   0  0  0  0  0  2  0  0  0  0  0  0
  145.9420  133.3360   97.5110 C   0  0  0  0  0  0  0  0  0  0  0  0
  146.5250  133.6070   96.4760 O   0  0  0  0  0  0  0  0  0  0  0  0
  146.6330  132.9160   98.5900 O   0  0  0  0  0  0  0  0  0  0  0  0
  146.3840  131.9720   98.6780 H   0  0  0  0  0  0  0  0  0  0  0  0
  145.2650  136.9350   97.7680 C   0  0  1  0  0  3  0  0  0  0  0  0
  144.0790  137.0260   96.7990 C   0  0  0  0  0  1  0  0  0  0  0  0
  145.2210  138.1020   98.7410 C   0  0  0  0  0  0  0  0  0  0  0  0
  144.5660  139.3010   98.4160 C   0  0  0  0  0  3  0  0  0  0  0  0
  144.5430  140.3680   99.3160 C   0  0  0  0  0  3  0  0  0  0  0  0
  145.1770  140.2510  100.5510 C   0  0  0  0  0  3  0  0  0  0  0  0
  145.8320  139.0680  100.8890 C   0  0  0  0  0  3  0  0  0  0  0  0
  145.8560  138.0010   99.9890 C   0  0  0  0  0  3  0  0  0  0  0  0
  1  2  1  0  0  0  0
  3  1  1  0  0  0  0
  3  4  1  1  0  0  0
  5  3  1  0  0  0  0
  6  5  1  0  0  0  0
  6  8  1  0  0  0  0
  7  6  2  0  0  0  0
  8  9  1  0  0  0  0
 10 11  1  6  0  0  0
 10  1  1  0  0  0  0
 10 12  1  0  0  0  0
 12 17  1  0  0  0  0
 13 12  2  0  0  0  0
 13 14  1  0  0  0  0
 14 15  2  0  0  0  0
 15 16  1  0  0  0  0
 17 16  2  0  0  0  0
M  END
>  <MODEL>
3

>  <REMARK>
 VINA RESULT:      -5.1      3.347      5.211
  6 active torsions:
  status: ('A' for Active; 'I' for Inactive)
    1  A    between atoms: C_2  and  C_3 
    2  A    between atoms: C_2  and  N_7 
    3  A    between atoms: C_3  and  C_4 
    4  A    between atoms: C_4  and  O_6 
    5  A    between atoms: N_7  and  C_8 
    6  A    between atoms: C_8  and  C_10 

>  <TORSDO>
F 6

$$$$
../results/processed/lowest_conf/7XP6/docked/b4c.pdbqt
 OpenBabel07252415363D

 17 17  0  0  1  0  0  0  0  0999 V2000
  145.7030  138.7740   98.0430 N   0  0  0  0  0  0  0  0  0  0  0  0
  146.1460  137.8590   98.1070 H   0  0  0  0  0  0  0  0  0  0  0  0
  144.2530  138.6080   97.8140 C   0  0  2  0  0  3  0  0  0  0  0  0
  143.4820  139.7680   98.4590 C   0  0  0  0  0  1  0  0  0  0  0  0
  143.8440  137.2600   98.4270 C   0  0  0  0  0  2  0  0  0  0  0  0
  144.8560  136.1770   98.1600 C   0  0  0  0  0  0  0  0  0  0  0  0
  145.4180  135.9180   97.1100 O   0  0  0  0  0  0  0  0  0  0  0  0
  145.1270  135.4600   99.2700 O   0  0  0  0  0  0  0  0  0  0  0  0
  146.0660  135.2040   99.1630 H   0  0  0  0  0  0  0  0  0  0  0  0
  146.0240  139.5590   99.2480 C   0  0  1  0  0  3  0  0  0  0  0  0
  146.7990  138.6680  100.2280 C   0  0  0  0  0  1  0  0  0  0  0  0
  146.8370  140.8050   98.9370 C   0  0  0  0  0  0  0  0  0  0  0  0
  146.3300  142.0910   99.1860 C   0  0  0  0  0  3  0  0  0  0  0  0
  147.0850  143.2260   98.8850 C   0  0  0  0  0  3  0  0  0  0  0  0
  148.3550  143.0910   98.3300 C   0  0  0  0  0  3  0  0  0  0  0  0
  148.8720  141.8230   98.0750 C   0  0  0  0  0  3  0  0  0  0  0  0
  148.1180  140.6870   98.3750 C   0  0  0  0  0  3  0  0  0  0  0  0
  1  2  1  0  0  0  0
  1 10  1  0  0  0  0
  3  1  1  0  0  0  0
  3  5  1  0  0  0  0
  3  4  1  1  0  0  0
  6  5  1  0  0  0  0
  6  8  1  0  0  0  0
  7  6  2  0  0  0  0
  9  8  1  0  0  0  0
 10 11  1  1  0  0  0
 12 13  1  0  0  0  0
 12 10  1  0  0  0  0
 14 13  2  0  0  0  0
 15 14  1  0  0  0  0
 16 15  2  0  0  0  0
 16 17  1  0  0  0  0
 17 12  2  0  0  0  0
M  END
>  <MODEL>
4

>  <REMARK>
 VINA RESULT:      -5.1      2.266      4.420
  6 active torsions:
  status: ('A' for Active; 'I' for Inactive)
    1  A    between atoms: C_2  and  C_3 
    2  A    between atoms: C_2  and  N_7 
    3  A    between atoms: C_3  and  C_4 
    4  A    between atoms: C_4  and  O_6 
    5  A    between atoms: N_7  and  C_8 
    6  A    between atoms: C_8  and  C_10 

>  <TORSDO>
F 6

$$$$
../results/processed/lowest_conf/7XP6/docked/b4c.pdbqt
 OpenBabel07252415363D

 17 17  0  0  1  0  0  0  0  0999 V2000
  146.4300  140.9070   99.2780 N   0  0  0  0  0  0  0  0  0  0  0  0
  146.0570  141.3330  100.1250 H   0  0  0  0  0  0  0  0  0  0  0  0
  145.3850  140.0830   98.6360 C   0  0  2  0  0  3  0  0  0  0  0  0
  143.9950  140.6290   98.9890 C   0  0  0  0  0  1  0  0  0  0  0  0
  145.5630  138.6430   99.1410 C   0  0  0  0  0  2  0  0  0  0  0  0
  146.1360  138.5890  100.5320 C   0  0  0  0  0  0  0  0  0  0  0  0
  145.5960  138.9040  101.5790 O   0  0  0  0  0  0  0  0  0  0  0  0
  147.3980  138.1120  100.5360 O   0  0  0  0  0  0  0  0  0  0  0  0
  147.9340  138.8620  100.8680 H   0  0  0  0  0  0  0  0  0  0  0  0
  146.9740  141.9590   98.4010 C   0  0  1  0  0  3  0  0  0  0  0  0
  146.5960  143.3290   98.9770 C   0  0  0  0  0  1  0  0  0  0  0  0
  148.4840  141.8690   98.2450 C   0  0  0  0  0  0  0  0  0  0  0  0
  149.1100  140.6700   97.8660 C   0  0  0  0  0  3  0  0  0  0  0  0
  150.4980  140.6000   97.7360 C   0  0  0  0  0  3  0  0  0  0  0  0
  151.2780  141.7260   97.9850 C   0  0  0  0  0  3  0  0  0  0  0  0
  150.6730  142.9230   98.3630 C   0  0  0  0  0  3  0  0  0  0  0  0
  149.2850  142.9940   98.4930 C   0  0  0  0  0  3  0  0  0  0  0  0
  1  2  1  0  0  0  0
  3  4  1  1  0  0  0
  3  5  1  0  0  0  0
  3  1  1  0  0  0  0
  5  6  1  0  0  0  0
  6  8  1  0  0  0  0
  6  7  2  0  0  0  0
  8  9  1  0  0  0  0
 10 11  1  1  0  0  0
 10  1  1  0  0  0  0
 12 10  1  0  0  0  0
 12 17  1  0  0  0  0
 13 12  2  0  0  0  0
 14 13  1  0  0  0  0
 14 15  2  0  0  0  0
 15 16  1  0  0  0  0
 16 17  2  0  0  0  0
M  END
>  <MODEL>
5

>  <REMARK>
 VINA RESULT:      -5.0      2.436      5.322
  6 active torsions:
  status: ('A' for Active; 'I' for Inactive)
    1  A    between atoms: C_2  and  C_3 
    2  A    between atoms: C_2  and  N_7 
    3  A    between atoms: C_3  and  C_4 
    4  A    between atoms: C_4  and  O_6 
    5  A    between atoms: N_7  and  C_8 
    6  A    between atoms: C_8  and  C_10 

>  <TORSDO>
F 6

$$$$
../results/processed/lowest_conf/7XP6/docked/b4c.pdbqt
 OpenBabel07252415363D

 17 17  0  0  1  0  0  0  0  0999 V2000
  144.5770  140.1890   98.3330 N   0  0  0  0  0  0  0  0  0  0  0  0
  144.9250  140.8520   97.6420 H   0  0  0  0  0  0  0  0  0  0  0  0
  145.3060  140.3720   99.6050 C   0  0  2  0  0  3  0  0  0  0  0  0
  145.9570  141.7610   99.6430 C   0  0  0  0  0  1  0  0  0  0  0  0
  146.3620  139.2600   99.6920 C   0  0  0  0  0  2  0  0  0  0  0  0
  146.0390  138.2420  100.7530 C   0  0  0  0  0  0  0  0  0  0  0  0
  145.8500  138.4330  101.9420 O   0  0  0  0  0  0  0  0  0  0  0  0
  145.9560  136.9960  100.2440 O   0  0  0  0  0  0  0  0  0  0  0  0
  146.6850  136.5110  100.6840 H   0  0  0  0  0  0  0  0  0  0  0  0
  143.1170  140.3390   98.4630 C   0  0  1  0  0  3  0  0  0  0  0  0
  142.6180  141.2950   97.3710 C   0  0  0  0  0  1  0  0  0  0  0  0
  142.3800  139.0140   98.3580 C   0  0  0  0  0  0  0  0  0  0  0  0
  140.9780  138.9520   98.3980 C   0  0  0  0  0  3  0  0  0  0  0  0
  140.3150  137.7260   98.3110 C   0  0  0  0  0  3  0  0  0  0  0  0
  141.0450  136.5470   98.1850 C   0  0  0  0  0  3  0  0  0  0  0  0
  142.4370  136.5910   98.1440 C   0  0  0  0  0  3  0  0  0  0  0  0
  143.1010  137.8160   98.2320 C   0  0  0  0  0  3  0  0  0  0  0  0
  1 10  1  0  0  0  0
  1  3  1  0  0  0  0
  2  1  1  0  0  0  0
  3  4  1  6  0  0  0
  3  5  1  0  0  0  0
  5  6  1  0  0  0  0
  6  7  2  0  0  0  0
  8  9  1  0  0  0  0
  8  6  1  0  0  0  0
 10 11  1  6  0  0  0
 12 13  1  0  0  0  0
 12 10  1  0  0  0  0
 14 13  2  0  0  0  0
 15 14  1  0  0  0  0
 16 15  2  0  0  0  0
 16 17  1  0  0  0  0
 17 12  2  0  0  0  0
M  END
>  <MODEL>
6

>  <REMARK>
 VINA RESULT:      -4.9      1.858      3.148
  6 active torsions:
  status: ('A' for Active; 'I' for Inactive)
    1  A    between atoms: C_2  and  C_3 
    2  A    between atoms: C_2  and  N_7 
    3  A    between atoms: C_3  and  C_4 
    4  A    between atoms: C_4  and  O_6 
    5  A    between atoms: N_7  and  C_8 
    6  A    between atoms: C_8  and  C_10 

>  <TORSDO>
F 6

$$$$
../results/processed/lowest_conf/7XP6/docked/b4c.pdbqt
 OpenBabel07252415363D

 17 17  0  0  1  0  0  0  0  0999 V2000
  142.9840  141.0570   96.6710 N   0  0  0  0  0  0  0  0  0  0  0  0
  142.1730  140.6020   96.2550 H   0  0  0  0  0  0  0  0  0  0  0  0
  143.1550  142.4010   96.0800 C   0  0  2  0  0  3  0  0  0  0  0  0
  144.1360  143.2250   96.9230 C   0  0  0  0  0  1  0  0  0  0  0  0
  141.7690  143.0610   96.0350 C   0  0  0  0  0  2  0  0  0  0  0  0
  141.0100  142.7200   94.7800 C   0  0  0  0  0  0  0  0  0  0  0  0
  140.6590  141.6190   94.3920 O   0  0  0  0  0  0  0  0  0  0  0  0
  140.7110  143.8210   94.0600 O   0  0  0  0  0  0  0  0  0  0  0  0
  139.9410  144.2070   94.5270 H   0  0  0  0  0  0  0  0  0  0  0  0
  142.8380  141.0720   98.1370 C   0  0  1  0  0  3  0  0  0  0  0  0
  141.4380  140.5610   98.5010 C   0  0  0  0  0  1  0  0  0  0  0  0
  143.8900  140.2270   98.8390 C   0  0  0  0  0  0  0  0  0  0  0  0
  144.6750  140.7520   99.8780 C   0  0  0  0  0  3  0  0  0  0  0  0
  145.6430  139.9670  100.5060 C   0  0  0  0  0  3  0  0  0  0  0  0
  145.8410  138.6490  100.1030 C   0  0  0  0  0  3  0  0  0  0  0  0
  145.0720  138.1130   99.0720 C   0  0  0  0  0  3  0  0  0  0  0  0
  144.1030  138.8980   98.4430 C   0  0  0  0  0  3  0  0  0  0  0  0
  1 10  1  0  0  0  0
  2  1  1  0  0  0  0
  3  1  1  0  0  0  0
  3  4  1  1  0  0  0
  5  3  1  0  0  0  0
  6  5  1  0  0  0  0
  7  6  2  0  0  0  0
  8  9  1  0  0  0  0
  8  6  1  0  0  0  0
 10 11  1  6  0  0  0
 10 12  1  0  0  0  0
 12 13  1  0  0  0  0
 13 14  2  0  0  0  0
 15 14  1  0  0  0  0
 16 15  2  0  0  0  0
 17 12  2  0  0  0  0
 17 16  1  0  0  0  0
M  END
>  <MODEL>
7

>  <REMARK>
 VINA RESULT:      -4.8      3.929      6.143
  6 active torsions:
  status: ('A' for Active; 'I' for Inactive)
    1  A    between atoms: C_2  and  C_3 
    2  A    between atoms: C_2  and  N_7 
    3  A    between atoms: C_3  and  C_4 
    4  A    between atoms: C_4  and  O_6 
    5  A    between atoms: N_7  and  C_8 
    6  A    between atoms: C_8  and  C_10 

>  <TORSDO>
F 6

$$$$
../results/processed/lowest_conf/7XP6/docked/b4c.pdbqt
 OpenBabel07252415363D

 17 17  0  0  1  0  0  0  0  0999 V2000
  143.4120  140.7480   96.6560 N   0  0  0  0  0  0  0  0  0  0  0  0
  143.1750  139.8150   96.9920 H   0  0  0  0  0  0  0  0  0  0  0  0
  142.3440  141.6960   97.0350 C   0  0  2  0  0  3  0  0  0  0  0  0
  141.4920  141.1030   98.1650 C   0  0  0  0  0  1  0  0  0  0  0  0
  141.4990  141.9610   95.7800 C   0  0  0  0  0  2  0  0  0  0  0  0
  140.7660  143.2740   95.8470 C   0  0  0  0  0  0  0  0  0  0  0  0
  140.8780  144.1530   96.6840 O   0  0  0  0  0  0  0  0  0  0  0  0
  139.9120  143.4240   94.8150 O   0  0  0  0  0  0  0  0  0  0  0  0
  140.3710  142.9950   94.0630 H   0  0  0  0  0  0  0  0  0  0  0  0
  144.7440  141.1260   97.1600 C   0  0  1  0  0  3  0  0  0  0  0  0
  144.7710  142.6410   97.3990 C   0  0  0  0  0  1  0  0  0  0  0  0
  145.1130  140.3990   98.4430 C   0  0  0  0  0  0  0  0  0  0  0  0
  144.9130  140.9890   99.7020 C   0  0  0  0  0  3  0  0  0  0  0  0
  145.2670  140.3140  100.8710 C   0  0  0  0  0  3  0  0  0  0  0  0
  145.8270  139.0400  100.7970 C   0  0  0  0  0  3  0  0  0  0  0  0
  146.0330  138.4410   99.5570 C   0  0  0  0  0  3  0  0  0  0  0  0
  145.6800  139.1160   98.3870 C   0  0  0  0  0  3  0  0  0  0  0  0
  1  2  1  0  0  0  0
  1  3  1  0  0  0  0
  1 10  1  0  0  0  0
  3  4  1  1  0  0  0
  5  6  1  0  0  0  0
  5  3  1  0  0  0  0
  6  7  2  0  0  0  0
  8  6  1  0  0  0  0
  9  8  1  0  0  0  0
 10 11  1  1  0  0  0
 10 12  1  0  0  0  0
 12 13  1  0  0  0  0
 13 14  2  0  0  0  0
 15 14  1  0  0  0  0
 16 15  2  0  0  0  0
 17 12  2  0  0  0  0
 17 16  1  0  0  0  0
M  END
>  <MODEL>
8

>  <REMARK>
 VINA RESULT:      -4.8      3.902      6.145
  6 active torsions:
  status: ('A' for Active; 'I' for Inactive)
    1  A    between atoms: C_2  and  C_3 
    2  A    between atoms: C_2  and  N_7 
    3  A    between atoms: C_3  and  C_4 
    4  A    between atoms: C_4  and  O_6 
    5  A    between atoms: N_7  and  C_8 
    6  A    between atoms: C_8  and  C_10 

>  <TORSDO>
F 6

$$$$
../results/processed/lowest_conf/7XP6/docked/b4c.pdbqt
 OpenBabel07252415363D

 17 17  0  0  1  0  0  0  0  0999 V2000
  146.2670  138.9330   99.0120 N   0  0  0  0  0  0  0  0  0  0  0  0
  147.2810  138.9240   99.1110 H   0  0  0  0  0  0  0  0  0  0  0  0
  145.6540  138.1860  100.1300 C   0  0  2  0  0  3  0  0  0  0  0  0
  146.7410  137.7180  101.1080 C   0  0  0  0  0  1  0  0  0  0  0  0
  144.8990  136.9930   99.5250 C   0  0  0  0  0  2  0  0  0  0  0  0
  144.8220  137.0630   98.0230 C   0  0  0  0  0  0  0  0  0  0  0  0
  144.0780  137.7470   97.3420 O   0  0  0  0  0  0  0  0  0  0  0  0
  145.7250  136.2510   97.4370 O   0  0  0  0  0  0  0  0  0  0  0  0
  146.4150  136.1300   98.1220 H   0  0  0  0  0  0  0  0  0  0  0  0
  145.7980  140.3250   98.9060 C   0  0  1  0  0  3  0  0  0  0  0  0
  145.1100  140.7180  100.2190 C   0  0  0  0  0  1  0  0  0  0  0  0
  146.9230  141.3020   98.6060 C   0  0  0  0  0  0  0  0  0  0  0  0
  146.6940  142.6860   98.5450 C   0  0  0  0  0  3  0  0  0  0  0  0
  147.7360  143.5700   98.2590 C   0  0  0  0  0  3  0  0  0  0  0  0
  149.0200  143.0820   98.0260 C   0  0  0  0  0  3  0  0  0  0  0  0
  149.2640  141.7110   98.0810 C   0  0  0  0  0  3  0  0  0  0  0  0
  148.2220  140.8260   98.3670 C   0  0  0  0  0  3  0  0  0  0  0  0
  1  2  1  0  0  0  0
  1  3  1  0  0  0  0
  3  4  1  1  0  0  0
  5  3  1  0  0  0  0
  6  5  1  0  0  0  0
  7  6  2  0  0  0  0
  8  6  1  0  0  0  0
  8  9  1  0  0  0  0
 10  1  1  0  0  0  0
 10 11  1  1  0  0  0
 12 10  1  0  0  0  0
 13 12  1  0  0  0  0
 14 13  2  0  0  0  0
 15 16  2  0  0  0  0
 15 14  1  0  0  0  0
 16 17  1  0  0  0  0
 17 12  2  0  0  0  0
M  END
>  <MODEL>
9

>  <REMARK>
 VINA RESULT:      -4.7      3.108      4.520
  6 active torsions:
  status: ('A' for Active; 'I' for Inactive)
    1  A    between atoms: C_2  and  C_3 
    2  A    between atoms: C_2  and  N_7 
    3  A    between atoms: C_3  and  C_4 
    4  A    between atoms: C_4  and  O_6 
    5  A    between atoms: N_7  and  C_8 
    6  A    between atoms: C_8  and  C_10 

>  <TORSDO>
F 6

$$$$
