MODEL 1
REMARK VINA RESULT:      -5.3      0.000      0.000
REMARK  6 active torsions:
REMARK  status: ('A' for Active; 'I' for Inactive)
REMARK    1  A    between atoms: C_2  and  C_3 
REMARK    2  A    between atoms: C_2  and  N_7 
REMARK    3  A    between atoms: C_3  and  C_4 
REMARK    4  A    between atoms: C_4  and  O_6 
REMARK    5  A    between atoms: N_7  and  C_8 
REMARK    6  A    between atoms: C_8  and  C_10 
ROOT
ATOM      1  N   UNL d   1     145.021 139.894  99.378  0.00  0.00     0.096 N 
ATOM      2  H   UNL d   1     144.798 138.983  99.776  0.00  0.00     0.317 HD
ENDROOT
BRANCH   1   3
ATOM      3  C   UNL d   1     146.450 140.196  99.606  0.00  0.00     0.227 C 
ATOM      4  C   UNL d   1     147.079 140.757  98.323  0.00  0.00     0.043 C 
BRANCH   3   5
ATOM      5  C   UNL d   1     147.132 138.888 100.034  0.00  0.00     0.144 C 
BRANCH   5   6
ATOM      6  C   UNL d   1     146.243 138.031 100.895  0.00  0.00     0.141 C 
ATOM      7  O   UNL d   1     145.859 138.253 102.030  0.00  0.00    -0.650 OA
BRANCH   6   8
ATOM      8  O   UNL d   1     145.860 136.906 100.256  0.00  0.00    -0.776 OA
ATOM      9  H   UNL d   1     145.163 136.531 100.834  0.00  0.00     0.167 HD
ENDBRANCH   6   8
ENDBRANCH   5   6
ENDBRANCH   3   5
ENDBRANCH   1   3
BRANCH   1  10
ATOM     10  C   UNL d   1     144.633 139.916  97.957  0.00  0.00     0.249 C 
ATOM     11  C   UNL d   1     144.205 138.503  97.539  0.00  0.00     0.048 C 
BRANCH  10  12
ATOM     12  C   UNL d   1     143.506 140.897  97.673  0.00  0.00    -0.026 A 
ATOM     13  C   UNL d   1     142.206 140.678  98.157  0.00  0.00     0.009 A 
ATOM     14  C   UNL d   1     141.180 141.583  97.878  0.00  0.00     0.001 A 
ATOM     15  C   UNL d   1     141.440 142.717  97.111  0.00  0.00     0.000 A 
ATOM     16  C   UNL d   1     142.724 142.947  96.623  0.00  0.00     0.001 A 
ATOM     17  C   UNL d   1     143.751 142.043  96.900  0.00  0.00     0.009 A 
ENDBRANCH  10  12
ENDBRANCH   1  10
TORSDOF 6
ENDMDL
MODEL 2
REMARK VINA RESULT:      -5.1      2.973      5.295
REMARK  6 active torsions:
REMARK  status: ('A' for Active; 'I' for Inactive)
REMARK    1  A    between atoms: C_2  and  C_3 
REMARK    2  A    between atoms: C_2  and  N_7 
REMARK    3  A    between atoms: C_3  and  C_4 
REMARK    4  A    between atoms: C_4  and  O_6 
REMARK    5  A    between atoms: N_7  and  C_8 
REMARK    6  A    between atoms: C_8  and  C_10 
ROOT
ATOM      1  N   UNL d   1     146.609 139.697  98.217  0.00  0.00     0.096 N 
ATOM      2  H   UNL d   1     147.480 139.193  98.057  0.00  0.00     0.317 HD
ENDROOT
BRANCH   1   3
ATOM      3  C   UNL d   1     146.044 139.307  99.526  0.00  0.00     0.227 C 
ATOM      4  C   UNL d   1     147.098 138.554 100.349  0.00  0.00     0.043 C 
BRANCH   3   5
ATOM      5  C   UNL d   1     144.818 138.424  99.251  0.00  0.00     0.144 C 
BRANCH   5   6
ATOM      6  C   UNL d   1     145.186 137.110  98.615  0.00  0.00     0.141 C 
ATOM      7  O   UNL d   1     145.533 136.904  97.465  0.00  0.00    -0.650 OA
BRANCH   6   8
ATOM      8  O   UNL d   1     145.110 136.089  99.494  0.00  0.00    -0.776 OA
ATOM      9  H   UNL d   1     144.698 135.364  98.979  0.00  0.00     0.167 HD
ENDBRANCH   6   8
ENDBRANCH   5   6
ENDBRANCH   3   5
ENDBRANCH   1   3
BRANCH   1  10
ATOM     10  C   UNL d   1     146.850 141.145  98.086  0.00  0.00     0.249 C 
ATOM     11  C   UNL d   1     146.102 141.875  99.209  0.00  0.00     0.048 C 
BRANCH  10  12
ATOM     12  C   UNL d   1     148.327 141.500  98.140  0.00  0.00    -0.026 A 
ATOM     13  C   UNL d   1     149.320 140.542  97.882  0.00  0.00     0.009 A 
ATOM     14  C   UNL d   1     150.673 140.881  97.946  0.00  0.00     0.001 A 
ATOM     15  C   UNL d   1     151.050 142.182  98.270  0.00  0.00     0.000 A 
ATOM     16  C   UNL d   1     150.078 143.145  98.531  0.00  0.00     0.001 A 
ATOM     17  C   UNL d   1     148.724 142.806  98.467  0.00  0.00     0.009 A 
ENDBRANCH  10  12
ENDBRANCH   1  10
TORSDOF 6
ENDMDL
MODEL 3
REMARK VINA RESULT:      -5.1      3.347      5.211
REMARK  6 active torsions:
REMARK  status: ('A' for Active; 'I' for Inactive)
REMARK    1  A    between atoms: C_2  and  C_3 
REMARK    2  A    between atoms: C_2  and  N_7 
REMARK    3  A    between atoms: C_3  and  C_4 
REMARK    4  A    between atoms: C_4  and  O_6 
REMARK    5  A    between atoms: N_7  and  C_8 
REMARK    6  A    between atoms: C_8  and  C_10 
ROOT
ATOM      1  N   UNL d   1     145.226 135.627  98.446  0.00  0.00     0.096 N 
ATOM      2  H   UNL d   1     145.302 135.766  99.453  0.00  0.00     0.317 HD
ENDROOT
BRANCH   1   3
ATOM      3  C   UNL d   1     144.011 134.841  98.146  0.00  0.00     0.227 C 
ATOM      4  C   UNL d   1     143.073 134.839  99.359  0.00  0.00     0.043 C 
BRANCH   3   5
ATOM      5  C   UNL d   1     144.464 133.417  97.790  0.00  0.00     0.144 C 
BRANCH   5   6
ATOM      6  C   UNL d   1     145.942 133.336  97.511  0.00  0.00     0.141 C 
ATOM      7  O   UNL d   1     146.525 133.607  96.476  0.00  0.00    -0.650 OA
BRANCH   6   8
ATOM      8  O   UNL d   1     146.633 132.916  98.590  0.00  0.00    -0.776 OA
ATOM      9  H   UNL d   1     146.384 131.972  98.678  0.00  0.00     0.167 HD
ENDBRANCH   6   8
ENDBRANCH   5   6
ENDBRANCH   3   5
ENDBRANCH   1   3
BRANCH   1  10
ATOM     10  C   UNL d   1     145.265 136.935  97.768  0.00  0.00     0.249 C 
ATOM     11  C   UNL d   1     144.079 137.026  96.799  0.00  0.00     0.048 C 
BRANCH  10  12
ATOM     12  C   UNL d   1     145.221 138.102  98.741  0.00  0.00    -0.026 A 
ATOM     13  C   UNL d   1     144.566 139.301  98.416  0.00  0.00     0.009 A 
ATOM     14  C   UNL d   1     144.543 140.368  99.316  0.00  0.00     0.001 A 
ATOM     15  C   UNL d   1     145.177 140.251 100.551  0.00  0.00     0.000 A 
ATOM     16  C   UNL d   1     145.832 139.068 100.889  0.00  0.00     0.001 A 
ATOM     17  C   UNL d   1     145.856 138.001  99.989  0.00  0.00     0.009 A 
ENDBRANCH  10  12
ENDBRANCH   1  10
TORSDOF 6
ENDMDL
MODEL 4
REMARK VINA RESULT:      -5.1      2.266      4.420
REMARK  6 active torsions:
REMARK  status: ('A' for Active; 'I' for Inactive)
REMARK    1  A    between atoms: C_2  and  C_3 
REMARK    2  A    between atoms: C_2  and  N_7 
REMARK    3  A    between atoms: C_3  and  C_4 
REMARK    4  A    between atoms: C_4  and  O_6 
REMARK    5  A    between atoms: N_7  and  C_8 
REMARK    6  A    between atoms: C_8  and  C_10 
ROOT
ATOM      1  N   UNL d   1     145.703 138.774  98.043  0.00  0.00     0.096 N 
ATOM      2  H   UNL d   1     146.146 137.859  98.107  0.00  0.00     0.317 HD
ENDROOT
BRANCH   1   3
ATOM      3  C   UNL d   1     144.253 138.608  97.814  0.00  0.00     0.227 C 
ATOM      4  C   UNL d   1     143.482 139.768  98.459  0.00  0.00     0.043 C 
BRANCH   3   5
ATOM      5  C   UNL d   1     143.844 137.260  98.427  0.00  0.00     0.144 C 
BRANCH   5   6
ATOM      6  C   UNL d   1     144.856 136.177  98.160  0.00  0.00     0.141 C 
ATOM      7  O   UNL d   1     145.418 135.918  97.110  0.00  0.00    -0.650 OA
BRANCH   6   8
ATOM      8  O   UNL d   1     145.127 135.460  99.270  0.00  0.00    -0.776 OA
ATOM      9  H   UNL d   1     146.066 135.204  99.163  0.00  0.00     0.167 HD
ENDBRANCH   6   8
ENDBRANCH   5   6
ENDBRANCH   3   5
ENDBRANCH   1   3
BRANCH   1  10
ATOM     10  C   UNL d   1     146.024 139.559  99.248  0.00  0.00     0.249 C 
ATOM     11  C   UNL d   1     146.799 138.668 100.228  0.00  0.00     0.048 C 
BRANCH  10  12
ATOM     12  C   UNL d   1     146.837 140.805  98.937  0.00  0.00    -0.026 A 
ATOM     13  C   UNL d   1     146.330 142.091  99.186  0.00  0.00     0.009 A 
ATOM     14  C   UNL d   1     147.085 143.226  98.885  0.00  0.00     0.001 A 
ATOM     15  C   UNL d   1     148.355 143.091  98.330  0.00  0.00     0.000 A 
ATOM     16  C   UNL d   1     148.872 141.823  98.075  0.00  0.00     0.001 A 
ATOM     17  C   UNL d   1     148.118 140.687  98.375  0.00  0.00     0.009 A 
ENDBRANCH  10  12
ENDBRANCH   1  10
TORSDOF 6
ENDMDL
MODEL 5
REMARK VINA RESULT:      -5.0      2.436      5.322
REMARK  6 active torsions:
REMARK  status: ('A' for Active; 'I' for Inactive)
REMARK    1  A    between atoms: C_2  and  C_3 
REMARK    2  A    between atoms: C_2  and  N_7 
REMARK    3  A    between atoms: C_3  and  C_4 
REMARK    4  A    between atoms: C_4  and  O_6 
REMARK    5  A    between atoms: N_7  and  C_8 
REMARK    6  A    between atoms: C_8  and  C_10 
ROOT
ATOM      1  N   UNL d   1     146.430 140.907  99.278  0.00  0.00     0.096 N 
ATOM      2  H   UNL d   1     146.057 141.333 100.125  0.00  0.00     0.317 HD
ENDROOT
BRANCH   1   3
ATOM      3  C   UNL d   1     145.385 140.083  98.636  0.00  0.00     0.227 C 
ATOM      4  C   UNL d   1     143.995 140.629  98.989  0.00  0.00     0.043 C 
BRANCH   3   5
ATOM      5  C   UNL d   1     145.563 138.643  99.141  0.00  0.00     0.144 C 
BRANCH   5   6
ATOM      6  C   UNL d   1     146.136 138.589 100.532  0.00  0.00     0.141 C 
ATOM      7  O   UNL d   1     145.596 138.904 101.579  0.00  0.00    -0.650 OA
BRANCH   6   8
ATOM      8  O   UNL d   1     147.398 138.112 100.536  0.00  0.00    -0.776 OA
ATOM      9  H   UNL d   1     147.934 138.862 100.868  0.00  0.00     0.167 HD
ENDBRANCH   6   8
ENDBRANCH   5   6
ENDBRANCH   3   5
ENDBRANCH   1   3
BRANCH   1  10
ATOM     10  C   UNL d   1     146.974 141.959  98.401  0.00  0.00     0.249 C 
ATOM     11  C   UNL d   1     146.596 143.329  98.977  0.00  0.00     0.048 C 
BRANCH  10  12
ATOM     12  C   UNL d   1     148.484 141.869  98.245  0.00  0.00    -0.026 A 
ATOM     13  C   UNL d   1     149.110 140.670  97.866  0.00  0.00     0.009 A 
ATOM     14  C   UNL d   1     150.498 140.600  97.736  0.00  0.00     0.001 A 
ATOM     15  C   UNL d   1     151.278 141.726  97.985  0.00  0.00     0.000 A 
ATOM     16  C   UNL d   1     150.673 142.923  98.363  0.00  0.00     0.001 A 
ATOM     17  C   UNL d   1     149.285 142.994  98.493  0.00  0.00     0.009 A 
ENDBRANCH  10  12
ENDBRANCH   1  10
TORSDOF 6
ENDMDL
MODEL 6
REMARK VINA RESULT:      -4.9      1.858      3.148
REMARK  6 active torsions:
REMARK  status: ('A' for Active; 'I' for Inactive)
REMARK    1  A    between atoms: C_2  and  C_3 
REMARK    2  A    between atoms: C_2  and  N_7 
REMARK    3  A    between atoms: C_3  and  C_4 
REMARK    4  A    between atoms: C_4  and  O_6 
REMARK    5  A    between atoms: N_7  and  C_8 
REMARK    6  A    between atoms: C_8  and  C_10 
ROOT
ATOM      1  N   UNL d   1     144.577 140.189  98.333  0.00  0.00     0.096 N 
ATOM      2  H   UNL d   1     144.925 140.852  97.642  0.00  0.00     0.317 HD
ENDROOT
BRANCH   1   3
ATOM      3  C   UNL d   1     145.306 140.372  99.605  0.00  0.00     0.227 C 
ATOM      4  C   UNL d   1     145.957 141.761  99.643  0.00  0.00     0.043 C 
BRANCH   3   5
ATOM      5  C   UNL d   1     146.362 139.260  99.692  0.00  0.00     0.144 C 
BRANCH   5   6
ATOM      6  C   UNL d   1     146.039 138.242 100.753  0.00  0.00     0.141 C 
ATOM      7  O   UNL d   1     145.850 138.433 101.942  0.00  0.00    -0.650 OA
BRANCH   6   8
ATOM      8  O   UNL d   1     145.956 136.996 100.244  0.00  0.00    -0.776 OA
ATOM      9  H   UNL d   1     146.685 136.511 100.684  0.00  0.00     0.167 HD
ENDBRANCH   6   8
ENDBRANCH   5   6
ENDBRANCH   3   5
ENDBRANCH   1   3
BRANCH   1  10
ATOM     10  C   UNL d   1     143.117 140.339  98.463  0.00  0.00     0.249 C 
ATOM     11  C   UNL d   1     142.618 141.295  97.371  0.00  0.00     0.048 C 
BRANCH  10  12
ATOM     12  C   UNL d   1     142.380 139.014  98.358  0.00  0.00    -0.026 A 
ATOM     13  C   UNL d   1     140.978 138.952  98.398  0.00  0.00     0.009 A 
ATOM     14  C   UNL d   1     140.315 137.726  98.311  0.00  0.00     0.001 A 
ATOM     15  C   UNL d   1     141.045 136.547  98.185  0.00  0.00     0.000 A 
ATOM     16  C   UNL d   1     142.437 136.591  98.144  0.00  0.00     0.001 A 
ATOM     17  C   UNL d   1     143.101 137.816  98.232  0.00  0.00     0.009 A 
ENDBRANCH  10  12
ENDBRANCH   1  10
TORSDOF 6
ENDMDL
MODEL 7
REMARK VINA RESULT:      -4.8      3.929      6.143
REMARK  6 active torsions:
REMARK  status: ('A' for Active; 'I' for Inactive)
REMARK    1  A    between atoms: C_2  and  C_3 
REMARK    2  A    between atoms: C_2  and  N_7 
REMARK    3  A    between atoms: C_3  and  C_4 
REMARK    4  A    between atoms: C_4  and  O_6 
REMARK    5  A    between atoms: N_7  and  C_8 
REMARK    6  A    between atoms: C_8  and  C_10 
ROOT
ATOM      1  N   UNL d   1     142.984 141.057  96.671  0.00  0.00     0.096 N 
ATOM      2  H   UNL d   1     142.173 140.602  96.255  0.00  0.00     0.317 HD
ENDROOT
BRANCH   1   3
ATOM      3  C   UNL d   1     143.155 142.401  96.080  0.00  0.00     0.227 C 
ATOM      4  C   UNL d   1     144.136 143.225  96.923  0.00  0.00     0.043 C 
BRANCH   3   5
ATOM      5  C   UNL d   1     141.769 143.061  96.035  0.00  0.00     0.144 C 
BRANCH   5   6
ATOM      6  C   UNL d   1     141.010 142.720  94.780  0.00  0.00     0.141 C 
ATOM      7  O   UNL d   1     140.659 141.619  94.392  0.00  0.00    -0.650 OA
BRANCH   6   8
ATOM      8  O   UNL d   1     140.711 143.821  94.060  0.00  0.00    -0.776 OA
ATOM      9  H   UNL d   1     139.941 144.207  94.527  0.00  0.00     0.167 HD
ENDBRANCH   6   8
ENDBRANCH   5   6
ENDBRANCH   3   5
ENDBRANCH   1   3
BRANCH   1  10
ATOM     10  C   UNL d   1     142.838 141.072  98.137  0.00  0.00     0.249 C 
ATOM     11  C   UNL d   1     141.438 140.561  98.501  0.00  0.00     0.048 C 
BRANCH  10  12
ATOM     12  C   UNL d   1     143.890 140.227  98.839  0.00  0.00    -0.026 A 
ATOM     13  C   UNL d   1     144.675 140.752  99.878  0.00  0.00     0.009 A 
ATOM     14  C   UNL d   1     145.643 139.967 100.506  0.00  0.00     0.001 A 
ATOM     15  C   UNL d   1     145.841 138.649 100.103  0.00  0.00     0.000 A 
ATOM     16  C   UNL d   1     145.072 138.113  99.072  0.00  0.00     0.001 A 
ATOM     17  C   UNL d   1     144.103 138.898  98.443  0.00  0.00     0.009 A 
ENDBRANCH  10  12
ENDBRANCH   1  10
TORSDOF 6
ENDMDL
MODEL 8
REMARK VINA RESULT:      -4.8      3.902      6.145
REMARK  6 active torsions:
REMARK  status: ('A' for Active; 'I' for Inactive)
REMARK    1  A    between atoms: C_2  and  C_3 
REMARK    2  A    between atoms: C_2  and  N_7 
REMARK    3  A    between atoms: C_3  and  C_4 
REMARK    4  A    between atoms: C_4  and  O_6 
REMARK    5  A    between atoms: N_7  and  C_8 
REMARK    6  A    between atoms: C_8  and  C_10 
ROOT
ATOM      1  N   UNL d   1     143.412 140.748  96.656  0.00  0.00     0.096 N 
ATOM      2  H   UNL d   1     143.175 139.815  96.992  0.00  0.00     0.317 HD
ENDROOT
BRANCH   1   3
ATOM      3  C   UNL d   1     142.344 141.696  97.035  0.00  0.00     0.227 C 
ATOM      4  C   UNL d   1     141.492 141.103  98.165  0.00  0.00     0.043 C 
BRANCH   3   5
ATOM      5  C   UNL d   1     141.499 141.961  95.780  0.00  0.00     0.144 C 
BRANCH   5   6
ATOM      6  C   UNL d   1     140.766 143.274  95.847  0.00  0.00     0.141 C 
ATOM      7  O   UNL d   1     140.878 144.153  96.684  0.00  0.00    -0.650 OA
BRANCH   6   8
ATOM      8  O   UNL d   1     139.912 143.424  94.815  0.00  0.00    -0.776 OA
ATOM      9  H   UNL d   1     140.371 142.995  94.063  0.00  0.00     0.167 HD
ENDBRANCH   6   8
ENDBRANCH   5   6
ENDBRANCH   3   5
ENDBRANCH   1   3
BRANCH   1  10
ATOM     10  C   UNL d   1     144.744 141.126  97.160  0.00  0.00     0.249 C 
ATOM     11  C   UNL d   1     144.771 142.641  97.399  0.00  0.00     0.048 C 
BRANCH  10  12
ATOM     12  C   UNL d   1     145.113 140.399  98.443  0.00  0.00    -0.026 A 
ATOM     13  C   UNL d   1     144.913 140.989  99.702  0.00  0.00     0.009 A 
ATOM     14  C   UNL d   1     145.267 140.314 100.871  0.00  0.00     0.001 A 
ATOM     15  C   UNL d   1     145.827 139.040 100.797  0.00  0.00     0.000 A 
ATOM     16  C   UNL d   1     146.033 138.441  99.557  0.00  0.00     0.001 A 
ATOM     17  C   UNL d   1     145.680 139.116  98.387  0.00  0.00     0.009 A 
ENDBRANCH  10  12
ENDBRANCH   1  10
TORSDOF 6
ENDMDL
MODEL 9
REMARK VINA RESULT:      -4.7      3.108      4.520
REMARK  6 active torsions:
REMARK  status: ('A' for Active; 'I' for Inactive)
REMARK    1  A    between atoms: C_2  and  C_3 
REMARK    2  A    between atoms: C_2  and  N_7 
REMARK    3  A    between atoms: C_3  and  C_4 
REMARK    4  A    between atoms: C_4  and  O_6 
REMARK    5  A    between atoms: N_7  and  C_8 
REMARK    6  A    between atoms: C_8  and  C_10 
ROOT
ATOM      1  N   UNL d   1     146.267 138.933  99.012  0.00  0.00     0.096 N 
ATOM      2  H   UNL d   1     147.281 138.924  99.111  0.00  0.00     0.317 HD
ENDROOT
BRANCH   1   3
ATOM      3  C   UNL d   1     145.654 138.186 100.130  0.00  0.00     0.227 C 
ATOM      4  C   UNL d   1     146.741 137.718 101.108  0.00  0.00     0.043 C 
BRANCH   3   5
ATOM      5  C   UNL d   1     144.899 136.993  99.525  0.00  0.00     0.144 C 
BRANCH   5   6
ATOM      6  C   UNL d   1     144.822 137.063  98.023  0.00  0.00     0.141 C 
ATOM      7  O   UNL d   1     144.078 137.747  97.342  0.00  0.00    -0.650 OA
BRANCH   6   8
ATOM      8  O   UNL d   1     145.725 136.251  97.437  0.00  0.00    -0.776 OA
ATOM      9  H   UNL d   1     146.415 136.130  98.122  0.00  0.00     0.167 HD
ENDBRANCH   6   8
ENDBRANCH   5   6
ENDBRANCH   3   5
ENDBRANCH   1   3
BRANCH   1  10
ATOM     10  C   UNL d   1     145.798 140.325  98.906  0.00  0.00     0.249 C 
ATOM     11  C   UNL d   1     145.110 140.718 100.219  0.00  0.00     0.048 C 
BRANCH  10  12
ATOM     12  C   UNL d   1     146.923 141.302  98.606  0.00  0.00    -0.026 A 
ATOM     13  C   UNL d   1     146.694 142.686  98.545  0.00  0.00     0.009 A 
ATOM     14  C   UNL d   1     147.736 143.570  98.259  0.00  0.00     0.001 A 
ATOM     15  C   UNL d   1     149.020 143.082  98.026  0.00  0.00     0.000 A 
ATOM     16  C   UNL d   1     149.264 141.711  98.081  0.00  0.00     0.001 A 
ATOM     17  C   UNL d   1     148.222 140.826  98.367  0.00  0.00     0.009 A 
ENDBRANCH  10  12
ENDBRANCH   1  10
TORSDOF 6
ENDMDL
