../results/processed/lowest_conf/7XP6/docked/b5.pdbqt
 OpenBabel07252415363D

 12 12  0  0  0  0  0  0  0  0999 V2000
  142.3740  135.5270   98.7350 O   0  0  0  0  0  0  0  0  0  0  0  0
  142.0980  134.3420   98.6150 C   0  0  0  0  0  0  0  0  0  0  0  0
  142.8310  133.3150   99.3840 C   0  0  0  0  0  3  0  0  0  0  0  0
  142.5210  132.0170   99.2460 C   0  0  0  0  0  0  0  0  0  0  0  0
  141.4690  131.5730   98.3500 C   0  0  0  0  0  3  0  0  0  0  0  0
  140.7390  132.4130   97.6070 C   0  0  0  0  0  3  0  0  0  0  0  0
  140.9900  133.8690   97.6740 C   0  0  0  0  0  0  0  0  0  0  0  0
  140.3340  134.6490   97.0030 O   0  0  0  0  0  0  0  0  0  0  0  0
  143.3210  131.0680  100.0640 C   0  0  0  0  0  0  0  0  0  0  0  0
  142.9770  130.5490  101.1110 O   0  0  0  0  0  0  0  0  0  0  0  0
  144.5280  130.8130   99.5300 O   0  0  0  0  0  0  0  0  0  0  0  0
  145.0910  130.6030  100.3050 H   0  0  0  0  0  0  0  0  0  0  0  0
  2  1  2  0  0  0  0
  2  3  1  0  0  0  0
  4  3  2  0  0  0  0
  4  9  1  0  0  0  0
  5  4  1  0  0  0  0
  6  7  1  0  0  0  0
  6  5  2  0  0  0  0
  7  2  1  0  0  0  0
  8  7  2  0  0  0  0
  9 10  2  0  0  0  0
 11  9  1  0  0  0  0
 11 12  1  0  0  0  0
M  END
>  <MODEL>
1

>  <REMARK>
 VINA RESULT:      -4.8      0.000      0.000
  2 active torsions:
  status: ('A' for Active; 'I' for Inactive)
    1  A    between atoms: C_4  and  C_9 
    2  A    between atoms: C_9  and  O_11 

>  <TORSDO>
F 2

$$$$
../results/processed/lowest_conf/7XP6/docked/b5.pdbqt
 OpenBabel07252415363D

 12 12  0  0  0  0  0  0  0  0999 V2000
  148.3430  141.0820   97.9070 O   0  0  0  0  0  0  0  0  0  0  0  0
  147.4440  140.7970   98.6840 C   0  0  0  0  0  0  0  0  0  0  0  0
  147.3460  139.4390   99.2600 C   0  0  0  0  0  3  0  0  0  0  0  0
  146.3550  139.1360  100.1130 C   0  0  0  0  0  0  0  0  0  0  0  0
  145.3540  140.1120  100.5000 C   0  0  0  0  0  3  0  0  0  0  0  0
  145.3430  141.3700  100.0420 C   0  0  0  0  0  3  0  0  0  0  0  0
  146.3860  141.8210   99.0960 C   0  0  0  0  0  0  0  0  0  0  0  0
  146.3920  142.9650   98.6690 O   0  0  0  0  0  0  0  0  0  0  0  0
  146.3500  137.7430  100.6320 C   0  0  0  0  0  0  0  0  0  0  0  0
  147.0070  137.3180  101.5650 O   0  0  0  0  0  0  0  0  0  0  0  0
  145.5160  136.9390   99.9500 O   0  0  0  0  0  0  0  0  0  0  0  0
  144.6390  137.1100  100.3560 H   0  0  0  0  0  0  0  0  0  0  0  0
  1  2  2  0  0  0  0
  2  7  1  0  0  0  0
  2  3  1  0  0  0  0
  3  4  2  0  0  0  0
  4  5  1  0  0  0  0
  4  9  1  0  0  0  0
  6  5  2  0  0  0  0
  7  6  1  0  0  0  0
  8  7  2  0  0  0  0
  9 10  2  0  0  0  0
 11 12  1  0  0  0  0
 11  9  1  0  0  0  0
M  END
>  <MODEL>
2

>  <REMARK>
 VINA RESULT:      -4.7      7.196      8.631
  2 active torsions:
  status: ('A' for Active; 'I' for Inactive)
    1  A    between atoms: C_4  and  C_9 
    2  A    between atoms: C_9  and  O_11 

>  <TORSDO>
F 2

$$$$
../results/processed/lowest_conf/7XP6/docked/b5.pdbqt
 OpenBabel07252415363D

 12 12  0  0  0  0  0  0  0  0999 V2000
  145.3720  142.4040   97.2070 O   0  0  0  0  0  0  0  0  0  0  0  0
  144.1880  142.1520   97.3710 C   0  0  0  0  0  0  0  0  0  0  0  0
  143.1460  142.9280   96.6650 C   0  0  0  0  0  3  0  0  0  0  0  0
  141.8480  142.6450   96.8520 C   0  0  0  0  0  0  0  0  0  0  0  0
  141.4180  141.5810   97.7400 C   0  0  0  0  0  3  0  0  0  0  0  0
  142.2710  140.8140   98.4290 C   0  0  0  0  0  3  0  0  0  0  0  0
  143.7280  141.0320   98.3040 C   0  0  0  0  0  0  0  0  0  0  0  0
  144.5210  140.3410   98.9250 O   0  0  0  0  0  0  0  0  0  0  0  0
  140.8850  143.4870   96.0950 C   0  0  0  0  0  0  0  0  0  0  0  0
  140.2160  143.1380   95.1400 O   0  0  0  0  0  0  0  0  0  0  0  0
  140.8050  144.7400   96.5740 O   0  0  0  0  0  0  0  0  0  0  0  0
  139.9170  144.7790   96.9890 H   0  0  0  0  0  0  0  0  0  0  0  0
  1  2  2  0  0  0  0
  2  7  1  0  0  0  0
  3  4  2  0  0  0  0
  3  2  1  0  0  0  0
  4  5  1  0  0  0  0
  5  6  2  0  0  0  0
  7  6  1  0  0  0  0
  7  8  2  0  0  0  0
  9 11  1  0  0  0  0
  9  4  1  0  0  0  0
 10  9  2  0  0  0  0
 11 12  1  0  0  0  0
M  END
>  <MODEL>
3

>  <REMARK>
 VINA RESULT:      -4.6      8.323     10.556
  2 active torsions:
  status: ('A' for Active; 'I' for Inactive)
    1  A    between atoms: C_4  and  C_9 
    2  A    between atoms: C_9  and  O_11 

>  <TORSDO>
F 2

$$$$
../results/processed/lowest_conf/7XP6/docked/b5.pdbqt
 OpenBabel07252415363D

 12 12  0  0  0  0  0  0  0  0999 V2000
  134.7260  128.7260   95.4600 O   0  0  0  0  0  0  0  0  0  0  0  0
  134.0800  129.2290   94.5530 C   0  0  0  0  0  0  0  0  0  0  0  0
  134.1970  130.6710   94.2510 C   0  0  0  0  0  3  0  0  0  0  0  0
  133.4830  131.2140   93.2530 C   0  0  0  0  0  0  0  0  0  0  0  0
  132.5810  130.4200   92.4390 C   0  0  0  0  0  3  0  0  0  0  0  0
  132.3970  129.1080   92.6190 C   0  0  0  0  0  3  0  0  0  0  0  0
  133.1290  128.3980   93.6910 C   0  0  0  0  0  0  0  0  0  0  0  0
  132.9730  127.2010   93.8700 O   0  0  0  0  0  0  0  0  0  0  0  0
  133.6760  132.6720   93.0370 C   0  0  0  0  0  0  0  0  0  0  0  0
  134.5240  133.1920   92.3360 O   0  0  0  0  0  0  0  0  0  0  0  0
  132.7870  133.4180   93.7170 O   0  0  0  0  0  0  0  0  0  0  0  0
  133.2430  134.2790   93.8360 H   0  0  0  0  0  0  0  0  0  0  0  0
  2  1  2  0  0  0  0
  3  2  1  0  0  0  0
  4  3  2  0  0  0  0
  5  6  2  0  0  0  0
  5  4  1  0  0  0  0
  6  7  1  0  0  0  0
  7  8  2  0  0  0  0
  7  2  1  0  0  0  0
  9  4  1  0  0  0  0
  9 11  1  0  0  0  0
 10  9  2  0  0  0  0
 11 12  1  0  0  0  0
M  END
>  <MODEL>
4

>  <REMARK>
 VINA RESULT:      -4.5      9.524     11.181
  2 active torsions:
  status: ('A' for Active; 'I' for Inactive)
    1  A    between atoms: C_4  and  C_9 
    2  A    between atoms: C_9  and  O_11 

>  <TORSDO>
F 2

$$$$
../results/processed/lowest_conf/7XP6/docked/b5.pdbqt
 OpenBabel07252415363D

 12 12  0  0  0  0  0  0  0  0999 V2000
  143.4820  140.9540   98.5310 O   0  0  0  0  0  0  0  0  0  0  0  0
  144.1790  140.0690   99.0070 C   0  0  0  0  0  0  0  0  0  0  0  0
  144.0520  138.6730   98.5380 C   0  0  0  0  0  3  0  0  0  0  0  0
  144.8210  137.7090   99.0660 C   0  0  0  0  0  0  0  0  0  0  0  0
  145.7960  137.9920  100.1040 C   0  0  0  0  0  3  0  0  0  0  0  0
  145.9980  139.2160  100.6040 C   0  0  0  0  0  3  0  0  0  0  0  0
  145.2080  140.3610  100.1000 C   0  0  0  0  0  0  0  0  0  0  0  0
  145.3790  141.4840  100.5440 O   0  0  0  0  0  0  0  0  0  0  0  0
  144.6110  136.3420   98.5230 C   0  0  0  0  0  0  0  0  0  0  0  0
  143.9420  136.0470   97.5490 O   0  0  0  0  0  0  0  0  0  0  0  0
  145.2560  135.3990   99.2310 O   0  0  0  0  0  0  0  0  0  0  0  0
  144.5570  135.0100   99.7990 H   0  0  0  0  0  0  0  0  0  0  0  0
  1  2  2  0  0  0  0
  2  7  1  0  0  0  0
  3  2  1  0  0  0  0
  3  4  2  0  0  0  0
  4  5  1  0  0  0  0
  5  6  2  0  0  0  0
  7  8  2  0  0  0  0
  7  6  1  0  0  0  0
  9  4  1  0  0  0  0
  9 11  1  0  0  0  0
 10  9  2  0  0  0  0
 11 12  1  0  0  0  0
M  END
>  <MODEL>
5

>  <REMARK>
 VINA RESULT:      -4.4      5.227      6.944
  2 active torsions:
  status: ('A' for Active; 'I' for Inactive)
    1  A    between atoms: C_4  and  C_9 
    2  A    between atoms: C_9  and  O_11 

>  <TORSDO>
F 2

$$$$
../results/processed/lowest_conf/7XP6/docked/b5.pdbqt
 OpenBabel07252415363D

 12 12  0  0  0  0  0  0  0  0999 V2000
  150.6110  124.2250  103.6420 O   0  0  0  0  0  0  0  0  0  0  0  0
  150.2830  125.3690  103.3640 C   0  0  0  0  0  0  0  0  0  0  0  0
  151.2420  126.2980  102.7310 C   0  0  0  0  0  3  0  0  0  0  0  0
  150.8720  127.5520  102.4300 C   0  0  0  0  0  0  0  0  0  0  0  0
  149.5340  128.0420  102.7070 C   0  0  0  0  0  3  0  0  0  0  0  0
  148.5840  127.2910  103.2760 C   0  0  0  0  0  3  0  0  0  0  0  0
  148.8740  125.8910  103.6530 C   0  0  0  0  0  0  0  0  0  0  0  0
  148.0190  125.1910  104.1720 O   0  0  0  0  0  0  0  0  0  0  0  0
  151.9150  128.4020  101.7970 C   0  0  0  0  0  0  0  0  0  0  0  0
  152.4480  129.3780  102.2920 O   0  0  0  0  0  0  0  0  0  0  0  0
  152.2440  127.9850  100.5630 O   0  0  0  0  0  0  0  0  0  0  0  0
  151.3810  127.9080  100.1010 H   0  0  0  0  0  0  0  0  0  0  0  0
  2  1  2  0  0  0  0
  2  7  1  0  0  0  0
  3  2  1  0  0  0  0
  4  5  1  0  0  0  0
  4  3  2  0  0  0  0
  5  6  2  0  0  0  0
  6  7  1  0  0  0  0
  7  8  2  0  0  0  0
  9 10  2  0  0  0  0
  9  4  1  0  0  0  0
 11  9  1  0  0  0  0
 12 11  1  0  0  0  0
M  END
>  <MODEL>
6

>  <REMARK>
 VINA RESULT:      -4.4     10.217     11.456
  2 active torsions:
  status: ('A' for Active; 'I' for Inactive)
    1  A    between atoms: C_4  and  C_9 
    2  A    between atoms: C_9  and  O_11 

>  <TORSDO>
F 2

$$$$
../results/processed/lowest_conf/7XP6/docked/b5.pdbqt
 OpenBabel07252415363D

 12 12  0  0  0  0  0  0  0  0999 V2000
  131.4680  128.7440   92.0300 O   0  0  0  0  0  0  0  0  0  0  0  0
  132.3170  129.2440   92.7530 C   0  0  0  0  0  0  0  0  0  0  0  0
  132.6430  130.6820   92.6520 C   0  0  0  0  0  3  0  0  0  0  0  0
  133.5770  131.2230   93.4490 C   0  0  0  0  0  0  0  0  0  0  0  0
  134.2960  130.4300   94.4300 C   0  0  0  0  0  3  0  0  0  0  0  0
  134.0840  129.1220   94.6100 C   0  0  0  0  0  3  0  0  0  0  0  0
  133.0780  128.4150   93.7890 C   0  0  0  0  0  0  0  0  0  0  0  0
  132.8710  127.2220   93.9400 O   0  0  0  0  0  0  0  0  0  0  0  0
  133.8260  132.6760   93.2630 C   0  0  0  0  0  0  0  0  0  0  0  0
  134.8420  133.1840   92.8230 O   0  0  0  0  0  0  0  0  0  0  0  0
  132.7810  133.4330   93.6410 O   0  0  0  0  0  0  0  0  0  0  0  0
  132.0320  132.8010   93.6750 H   0  0  0  0  0  0  0  0  0  0  0  0
  1  2  2  0  0  0  0
  2  7  1  0  0  0  0
  3  2  1  0  0  0  0
  3  4  2  0  0  0  0
  4  5  1  0  0  0  0
  5  6  2  0  0  0  0
  7  8  2  0  0  0  0
  7  6  1  0  0  0  0
  9  4  1  0  0  0  0
  9 11  1  0  0  0  0
 10  9  2  0  0  0  0
 11 12  1  0  0  0  0
M  END
>  <MODEL>
7

>  <REMARK>
 VINA RESULT:      -4.4      9.678     11.507
  2 active torsions:
  status: ('A' for Active; 'I' for Inactive)
    1  A    between atoms: C_4  and  C_9 
    2  A    between atoms: C_9  and  O_11 

>  <TORSDO>
F 2

$$$$
../results/processed/lowest_conf/7XP6/docked/b5.pdbqt
 OpenBabel07252415363D

 12 12  0  0  0  0  0  0  0  0999 V2000
  139.8620  133.4130   96.3760 O   0  0  0  0  0  0  0  0  0  0  0  0
  140.2690  134.3870   96.9910 C   0  0  0  0  0  0  0  0  0  0  0  0
  141.5050  134.3080   97.7980 C   0  0  0  0  0  3  0  0  0  0  0  0
  141.9440  135.3830   98.4700 C   0  0  0  0  0  0  0  0  0  0  0  0
  141.2360  136.6490   98.4350 C   0  0  0  0  0  3  0  0  0  0  0  0
  140.1090  136.8370   97.7390 C   0  0  0  0  0  3  0  0  0  0  0  0
  139.5270  135.7240   96.9570 C   0  0  0  0  0  0  0  0  0  0  0  0
  138.5000  135.8770   96.3160 O   0  0  0  0  0  0  0  0  0  0  0  0
  143.1960  135.1930   99.2500 C   0  0  0  0  0  0  0  0  0  0  0  0
  144.1650  135.9300   99.2490 O   0  0  0  0  0  0  0  0  0  0  0  0
  143.1740  134.0790  100.0000 O   0  0  0  0  0  0  0  0  0  0  0  0
  142.8150  133.3930   99.3970 H   0  0  0  0  0  0  0  0  0  0  0  0
  1  2  2  0  0  0  0
  2  3  1  0  0  0  0
  3  4  2  0  0  0  0
  4  9  1  0  0  0  0
  5  4  1  0  0  0  0
  6  5  2  0  0  0  0
  7  2  1  0  0  0  0
  7  6  1  0  0  0  0
  8  7  2  0  0  0  0
  9 11  1  0  0  0  0
 10  9  2  0  0  0  0
 12 11  1  0  0  0  0
M  END
>  <MODEL>
8

>  <REMARK>
 VINA RESULT:      -4.4      2.620      3.830
  2 active torsions:
  status: ('A' for Active; 'I' for Inactive)
    1  A    between atoms: C_4  and  C_9 
    2  A    between atoms: C_9  and  O_11 

>  <TORSDO>
F 2

$$$$
../results/processed/lowest_conf/7XP6/docked/b5.pdbqt
 OpenBabel07252415363D

 12 12  0  0  0  0  0  0  0  0999 V2000
  145.8000  123.3720  107.7610 O   0  0  0  0  0  0  0  0  0  0  0  0
  145.9870  124.5740  107.6490 C   0  0  0  0  0  0  0  0  0  0  0  0
  146.3880  125.3880  108.8150 C   0  0  0  0  0  3  0  0  0  0  0  0
  146.5910  126.7080  108.6810 C   0  0  0  0  0  0  0  0  0  0  0  0
  146.4280  127.3810  107.4060 C   0  0  0  0  0  3  0  0  0  0  0  0
  146.0700  126.7460  106.2850 C   0  0  0  0  0  3  0  0  0  0  0  0
  145.8180  125.2890  106.3070 C   0  0  0  0  0  0  0  0  0  0  0  0
  145.4900  124.6940  105.2940 O   0  0  0  0  0  0  0  0  0  0  0  0
  146.9900  127.4310  109.9180 C   0  0  0  0  0  0  0  0  0  0  0  0
  146.2470  128.0210  110.6800 O   0  0  0  0  0  0  0  0  0  0  0  0
  148.3150  127.3800  110.1420 O   0  0  0  0  0  0  0  0  0  0  0  0
  148.5820  128.3230  110.1940 H   0  0  0  0  0  0  0  0  0  0  0  0
  2  1  2  0  0  0  0
  2  3  1  0  0  0  0
  4  3  2  0  0  0  0
  4  9  1  0  0  0  0
  5  4  1  0  0  0  0
  6  7  1  0  0  0  0
  6  5  2  0  0  0  0
  7  2  1  0  0  0  0
  8  7  2  0  0  0  0
  9 11  1  0  0  0  0
  9 10  2  0  0  0  0
 11 12  1  0  0  0  0
M  END
>  <MODEL>
9

>  <REMARK>
 VINA RESULT:      -4.3     10.773     12.535
  2 active torsions:
  status: ('A' for Active; 'I' for Inactive)
    1  A    between atoms: C_4  and  C_9 
    2  A    between atoms: C_9  and  O_11 

>  <TORSDO>
F 2

$$$$
