../results/processed/lowest_conf/7XP6/docked/b5c.pdbqt
 OpenBabel07252415363D

 13 13  0  0  1  0  0  0  0  0999 V2000
  134.4590  130.4980   92.6010 C   0  0  0  0  0  2  0  0  0  0  0  0
  134.0070  131.0410   93.9540 C   0  0  0  0  0  2  0  0  0  0  0  0
  134.3520  130.0700   95.0880 C   0  0  2  0  0  3  0  0  0  0  0  0
  133.7700  128.6780   94.8240 C   0  0  0  0  0  2  0  0  0  0  0  0
  134.2260  128.1300   93.4660 C   0  0  2  0  0  3  0  0  0  0  0  0
  133.8860  129.1090   92.3350 C   0  0  0  0  0  2  0  0  0  0  0  0
  133.5970  126.7790   93.2130 C   0  0  0  0  0  0  0  0  0  0  0  0
  133.7270  126.0750   92.2260 O   0  0  0  0  0  0  0  0  0  0  0  0
  132.8390  126.3630   94.2470 O   0  0  0  0  0  0  0  0  0  0  0  0
  133.0270  125.4030   94.3050 H   0  0  0  0  0  0  0  0  0  0  0  0
  133.8400  130.5870   96.3540 N   0  0  0  0  0  0  0  0  0  0  0  0
  134.0120  129.9120   97.0990 H   0  0  0  0  0  0  0  0  0  0  0  0
  134.3460  131.4340   96.6130 H   0  0  0  0  0  0  0  0  0  0  0  0
  1  2  1  0  0  0  0
  2  3  1  0  0  0  0
  3 11  1  1  0  0  0
  4  3  1  0  0  0  0
  5  7  1  6  0  0  0
  5  4  1  0  0  0  0
  6  1  1  0  0  0  0
  6  5  1  0  0  0  0
  7  9  1  0  0  0  0
  8  7  2  0  0  0  0
  9 10  1  0  0  0  0
 11 13  1  0  0  0  0
 11 12  1  0  0  0  0
M  END
>  <MODEL>
1

>  <REMARK>
 VINA RESULT:      -4.8      0.000      0.000
  3 active torsions:
  status: ('A' for Active; 'I' for Inactive)
    1  A    between atoms: C_3  and  N_4 
    2  A    between atoms: C_6  and  C_8 
    3  A    between atoms: C_8  and  O_10 

>  <TORSDO>
F 3

$$$$
../results/processed/lowest_conf/7XP6/docked/b5c.pdbqt
 OpenBabel07252415363D

 13 13  0  0  1  0  0  0  0  0999 V2000
  145.4290  141.6230   99.2680 C   0  0  0  0  0  2  0  0  0  0  0  0
  146.8700  141.8920   98.8420 C   0  0  0  0  0  2  0  0  0  0  0  0
  147.5470  140.6150   98.3330 C   0  0  2  0  0  3  0  0  0  0  0  0
  147.4740  139.4940   99.3740 C   0  0  0  0  0  2  0  0  0  0  0  0
  146.0280  139.2210   99.8010 C   0  0  2  0  0  3  0  0  0  0  0  0
  145.3500  140.5040  100.3020 C   0  0  0  0  0  2  0  0  0  0  0  0
  145.9930  138.1460  100.8640 C   0  0  0  0  0  0  0  0  0  0  0  0
  145.8780  138.3000  102.0680 O   0  0  0  0  0  0  0  0  0  0  0  0
  146.0830  136.9060  100.3430 O   0  0  0  0  0  0  0  0  0  0  0  0
  146.9220  136.5570  100.7110 H   0  0  0  0  0  0  0  0  0  0  0  0
  148.9430  140.8950   98.0040 N   0  0  0  0  0  0  0  0  0  0  0  0
  149.0090  141.2580   97.0530 H   0  0  0  0  0  0  0  0  0  0  0  0
  149.3030  141.6260   98.6160 H   0  0  0  0  0  0  0  0  0  0  0  0
  1  6  1  0  0  0  0
  2  1  1  0  0  0  0
  3 11  1  1  0  0  0
  3  2  1  0  0  0  0
  3  4  1  0  0  0  0
  4  5  1  0  0  0  0
  5  6  1  0  0  0  0
  5  7  1  1  0  0  0
  7  8  2  0  0  0  0
  9 10  1  0  0  0  0
  9  7  1  0  0  0  0
 11 13  1  0  0  0  0
 12 11  1  0  0  0  0
M  END
>  <MODEL>
2

>  <REMARK>
 VINA RESULT:      -4.4     17.158     18.001
  3 active torsions:
  status: ('A' for Active; 'I' for Inactive)
    1  A    between atoms: C_3  and  N_4 
    2  A    between atoms: C_6  and  C_8 
    3  A    between atoms: C_8  and  O_10 

>  <TORSDO>
F 3

$$$$
../results/processed/lowest_conf/7XP6/docked/b5c.pdbqt
 OpenBabel07252415363D

 13 13  0  0  1  0  0  0  0  0999 V2000
  133.6500  127.6200   93.3040 C   0  0  0  0  0  2  0  0  0  0  0  0
  133.1740  128.7460   92.3910 C   0  0  0  0  0  2  0  0  0  0  0  0
  134.0380  130.0010   92.5590 C   0  0  2  0  0  3  0  0  0  0  0  0
  134.0850  130.4520   94.0210 C   0  0  0  0  0  2  0  0  0  0  0  0
  134.5650  129.3220   94.9400 C   0  0  2  0  0  3  0  0  0  0  0  0
  133.7030  128.0650   94.7620 C   0  0  0  0  0  2  0  0  0  0  0  0
  134.5530  129.7820   96.3800 C   0  0  0  0  0  0  0  0  0  0  0  0
  135.2010  129.3280   97.3070 O   0  0  0  0  0  0  0  0  0  0  0  0
  133.7250  130.8280   96.5790 O   0  0  0  0  0  0  0  0  0  0  0  0
  132.8460  130.4860   96.3100 H   0  0  0  0  0  0  0  0  0  0  0  0
  133.5100  131.0790   91.7260 N   0  0  0  0  0  0  0  0  0  0  0  0
  133.6060  130.8340   90.7400 H   0  0  0  0  0  0  0  0  0  0  0  0
  132.5110  131.1920   91.8970 H   0  0  0  0  0  0  0  0  0  0  0  0
  1  6  1  0  0  0  0
  2  3  1  0  0  0  0
  2  1  1  0  0  0  0
  3 11  1  6  0  0  0
  3  4  1  0  0  0  0
  4  5  1  0  0  0  0
  5  7  1  1  0  0  0
  6  5  1  0  0  0  0
  7  9  1  0  0  0  0
  7  8  2  0  0  0  0
 10  9  1  0  0  0  0
 11 13  1  0  0  0  0
 12 11  1  0  0  0  0
M  END
>  <MODEL>
3

>  <REMARK>
 VINA RESULT:      -4.3      2.964      3.813
  3 active torsions:
  status: ('A' for Active; 'I' for Inactive)
    1  A    between atoms: C_3  and  N_4 
    2  A    between atoms: C_6  and  C_8 
    3  A    between atoms: C_8  and  O_10 

>  <TORSDO>
F 3

$$$$
../results/processed/lowest_conf/7XP6/docked/b5c.pdbqt
 OpenBabel07252415363D

 13 13  0  0  1  0  0  0  0  0999 V2000
  132.2100  130.1980   91.7150 C   0  0  0  0  0  2  0  0  0  0  0  0
  133.0700  131.2880   92.3500 C   0  0  0  0  0  2  0  0  0  0  0  0
  134.2100  130.6850   93.1780 C   0  0  2  0  0  3  0  0  0  0  0  0
  133.6770  129.7120   94.2330 C   0  0  0  0  0  2  0  0  0  0  0  0
  132.8160  128.6150   93.5960 C   0  0  2  0  0  3  0  0  0  0  0  0
  131.6810  129.2220   92.7610 C   0  0  0  0  0  2  0  0  0  0  0  0
  132.2640  127.7000   94.6660 C   0  0  0  0  0  0  0  0  0  0  0  0
  131.5000  127.9940   95.5700 O   0  0  0  0  0  0  0  0  0  0  0  0
  132.6920  126.4290   94.5260 O   0  0  0  0  0  0  0  0  0  0  0  0
  133.6600  126.5200   94.4000 H   0  0  0  0  0  0  0  0  0  0  0  0
  134.9660  131.7540   93.8280 N   0  0  0  0  0  0  0  0  0  0  0  0
  135.2640  131.4520   94.7560 H   0  0  0  0  0  0  0  0  0  0  0  0
  135.8170  131.9450   93.3020 H   0  0  0  0  0  0  0  0  0  0  0  0
  1  2  1  0  0  0  0
  1  6  1  0  0  0  0
  2  3  1  0  0  0  0
  3 11  1  1  0  0  0
  3  4  1  0  0  0  0
  5  4  1  0  0  0  0
  5  7  1  1  0  0  0
  6  5  1  0  0  0  0
  7  8  2  0  0  0  0
  9  7  1  0  0  0  0
 10  9  1  0  0  0  0
 11 12  1  0  0  0  0
 13 11  1  0  0  0  0
M  END
>  <MODEL>
4

>  <REMARK>
 VINA RESULT:      -4.2      1.860      2.364
  3 active torsions:
  status: ('A' for Active; 'I' for Inactive)
    1  A    between atoms: C_3  and  N_4 
    2  A    between atoms: C_6  and  C_8 
    3  A    between atoms: C_8  and  O_10 

>  <TORSDO>
F 3

$$$$
../results/processed/lowest_conf/7XP6/docked/b5c.pdbqt
 OpenBabel07252415363D

 13 13  0  0  1  0  0  0  0  0999 V2000
  144.6090  138.4800   98.6710 C   0  0  0  0  0  2  0  0  0  0  0  0
  145.3030  137.4410   99.5480 C   0  0  0  0  0  2  0  0  0  0  0  0
  146.2060  138.1080  100.5920 C   0  0  2  0  0  3  0  0  0  0  0  0
  147.2200  139.0470   99.9320 C   0  0  0  0  0  2  0  0  0  0  0  0
  146.5240  140.0920   99.0530 C   0  0  2  0  0  3  0  0  0  0  0  0
  145.6150  139.4210   98.0150 C   0  0  0  0  0  2  0  0  0  0  0  0
  147.5530  140.9710   98.3770 C   0  0  0  0  0  0  0  0  0  0  0  0
  148.4250  140.6250   97.5990 O   0  0  0  0  0  0  0  0  0  0  0  0
  147.4110  142.2710   98.7030 O   0  0  0  0  0  0  0  0  0  0  0  0
  146.9460  142.2470   99.5660 H   0  0  0  0  0  0  0  0  0  0  0  0
  146.9080  137.0840  101.3630 N   0  0  0  0  0  0  0  0  0  0  0  0
  147.6710  136.6950  100.8080 H   0  0  0  0  0  0  0  0  0  0  0  0
  147.3380  137.5050  102.1860 H   0  0  0  0  0  0  0  0  0  0  0  0
  1  2  1  0  0  0  0
  2  3  1  0  0  0  0
  3 11  1  6  0  0  0
  4  3  1  0  0  0  0
  5  7  1  6  0  0  0
  5  4  1  0  0  0  0
  6  1  1  0  0  0  0
  6  5  1  0  0  0  0
  7  9  1  0  0  0  0
  8  7  2  0  0  0  0
  9 10  1  0  0  0  0
 11 13  1  0  0  0  0
 12 11  1  0  0  0  0
M  END
>  <MODEL>
5

>  <REMARK>
 VINA RESULT:      -4.2     16.898     17.770
  3 active torsions:
  status: ('A' for Active; 'I' for Inactive)
    1  A    between atoms: C_3  and  N_4 
    2  A    between atoms: C_6  and  C_8 
    3  A    between atoms: C_8  and  O_10 

>  <TORSDO>
F 3

$$$$
../results/processed/lowest_conf/7XP6/docked/b5c.pdbqt
 OpenBabel07252415363D

 13 13  0  0  1  0  0  0  0  0999 V2000
  143.7980  130.1560  100.1520 C   0  0  0  0  0  2  0  0  0  0  0  0
  142.9130  131.3990  100.0910 C   0  0  0  0  0  2  0  0  0  0  0  0
  143.0870  132.1410   98.7620 C   0  0  2  0  0  3  0  0  0  0  0  0
  144.5560  132.4910   98.5070 C   0  0  0  0  0  2  0  0  0  0  0  0
  145.4450  131.2440   98.5650 C   0  0  2  0  0  3  0  0  0  0  0  0
  145.2620  130.4980   99.8940 C   0  0  0  0  0  2  0  0  0  0  0  0
  146.8930  131.6270   98.3610 C   0  0  0  0  0  0  0  0  0  0  0  0
  147.7070  131.0860   97.6320 O   0  0  0  0  0  0  0  0  0  0  0  0
  147.2440  132.7120   99.0810 O   0  0  0  0  0  0  0  0  0  0  0  0
  148.2010  132.5830   99.2480 H   0  0  0  0  0  0  0  0  0  0  0  0
  142.2820  133.3610   98.7690 N   0  0  0  0  0  0  0  0  0  0  0  0
  142.0590  133.6230   99.7290 H   0  0  0  0  0  0  0  0  0  0  0  0
  142.8210  134.1340   98.3790 H   0  0  0  0  0  0  0  0  0  0  0  0
  2  1  1  0  0  0  0
  3 11  1  1  0  0  0
  3  2  1  0  0  0  0
  4  5  1  0  0  0  0
  4  3  1  0  0  0  0
  5  7  1  1  0  0  0
  5  6  1  0  0  0  0
  6  1  1  0  0  0  0
  7  9  1  0  0  0  0
  8  7  2  0  0  0  0
  9 10  1  0  0  0  0
 11 12  1  0  0  0  0
 13 11  1  0  0  0  0
M  END
>  <MODEL>
6

>  <REMARK>
 VINA RESULT:      -4.2     12.189     12.971
  3 active torsions:
  status: ('A' for Active; 'I' for Inactive)
    1  A    between atoms: C_3  and  N_4 
    2  A    between atoms: C_6  and  C_8 
    3  A    between atoms: C_8  and  O_10 

>  <TORSDO>
F 3

$$$$
../results/processed/lowest_conf/7XP6/docked/b5c.pdbqt
 OpenBabel07252415363D

 13 13  0  0  1  0  0  0  0  0999 V2000
  153.9440  128.7850  104.2480 C   0  0  0  0  0  2  0  0  0  0  0  0
  154.8510  128.8340  103.0200 C   0  0  0  0  0  2  0  0  0  0  0  0
  154.1290  129.4570  101.8210 C   0  0  2  0  0  3  0  0  0  0  0  0
  152.8200  128.7240  101.5170 C   0  0  0  0  0  2  0  0  0  0  0  0
  151.9070  128.6770  102.7480 C   0  0  2  0  0  3  0  0  0  0  0  0
  152.6360  128.0600  103.9490 C   0  0  0  0  0  2  0  0  0  0  0  0
  150.6460  127.9050  102.4310 C   0  0  0  0  0  0  0  0  0  0  0  0
  149.5350  128.0790  102.9010 O   0  0  0  0  0  0  0  0  0  0  0  0
  150.8490  126.9490  101.5020 O   0  0  0  0  0  0  0  0  0  0  0  0
  151.3690  127.4040  100.8070 H   0  0  0  0  0  0  0  0  0  0  0  0
  155.0000  129.4210  100.6480 N   0  0  0  0  0  0  0  0  0  0  0  0
  155.6100  130.2380  100.6440 H   0  0  0  0  0  0  0  0  0  0  0  0
  155.6110  128.6070  100.6960 H   0  0  0  0  0  0  0  0  0  0  0  0
  2  1  1  0  0  0  0
  3 11  1  6  0  0  0
  3  2  1  0  0  0  0
  4  3  1  0  0  0  0
  4  5  1  0  0  0  0
  5  7  1  6  0  0  0
  5  6  1  0  0  0  0
  6  1  1  0  0  0  0
  7  8  2  0  0  0  0
  9  7  1  0  0  0  0
 10  9  1  0  0  0  0
 11 13  1  0  0  0  0
 12 11  1  0  0  0  0
M  END
>  <MODEL>
7

>  <REMARK>
 VINA RESULT:      -4.2     20.215     20.882
  3 active torsions:
  status: ('A' for Active; 'I' for Inactive)
    1  A    between atoms: C_3  and  N_4 
    2  A    between atoms: C_6  and  C_8 
    3  A    between atoms: C_8  and  O_10 

>  <TORSDO>
F 3

$$$$
../results/processed/lowest_conf/7XP6/docked/b5c.pdbqt
 OpenBabel07252415363D

 13 13  0  0  1  0  0  0  0  0999 V2000
  146.8810  139.9880   99.5500 C   0  0  0  0  0  2  0  0  0  0  0  0
  146.5530  138.5820  100.0470 C   0  0  0  0  0  2  0  0  0  0  0  0
  145.5910  137.8650   99.0940 C   0  0  2  0  0  3  0  0  0  0  0  0
  144.3190  138.6850   98.8660 C   0  0  0  0  0  2  0  0  0  0  0  0
  144.6460  140.0960   98.3640 C   0  0  2  0  0  3  0  0  0  0  0  0
  145.6160  140.8080   99.3160 C   0  0  0  0  0  2  0  0  0  0  0  0
  143.3740  140.8970   98.1970 C   0  0  0  0  0  0  0  0  0  0  0  0
  142.2930  140.6860   98.7190 O   0  0  0  0  0  0  0  0  0  0  0  0
  143.5390  141.9590   97.3830 O   0  0  0  0  0  0  0  0  0  0  0  0
  144.4890  142.1820   97.4780 H   0  0  0  0  0  0  0  0  0  0  0  0
  145.2440  136.5540   99.6390 N   0  0  0  0  0  0  0  0  0  0  0  0
  145.6370  136.4520  100.5740 H   0  0  0  0  0  0  0  0  0  0  0  0
  144.2330  136.4790   99.7430 H   0  0  0  0  0  0  0  0  0  0  0  0
  1  2  1  0  0  0  0
  3 11  1  1  0  0  0
  3  2  1  0  0  0  0
  4  3  1  0  0  0  0
  5  7  1  1  0  0  0
  5  4  1  0  0  0  0
  5  6  1  0  0  0  0
  6  1  1  0  0  0  0
  7  8  2  0  0  0  0
  9 10  1  0  0  0  0
  9  7  1  0  0  0  0
 11 13  1  0  0  0  0
 11 12  1  0  0  0  0
M  END
>  <MODEL>
8

>  <REMARK>
 VINA RESULT:      -4.0     15.643     16.633
  3 active torsions:
  status: ('A' for Active; 'I' for Inactive)
    1  A    between atoms: C_3  and  N_4 
    2  A    between atoms: C_6  and  C_8 
    3  A    between atoms: C_8  and  O_10 

>  <TORSDO>
F 3

$$$$
../results/processed/lowest_conf/7XP6/docked/b5c.pdbqt
 OpenBabel07252415363D

 13 13  0  0  1  0  0  0  0  0999 V2000
  133.5830  128.5370   92.5110 C   0  0  0  0  0  2  0  0  0  0  0  0
  134.4170  128.3410   93.7740 C   0  0  0  0  0  2  0  0  0  0  0  0
  133.9620  129.2840   94.8930 C   0  0  2  0  0  3  0  0  0  0  0  0
  133.9820  130.7440   94.4340 C   0  0  0  0  0  2  0  0  0  0  0  0
  133.1420  130.9430   93.1670 C   0  0  2  0  0  3  0  0  0  0  0  0
  133.5960  129.9910   92.0510 C   0  0  0  0  0  2  0  0  0  0  0  0
  133.2220  132.3810   92.7090 C   0  0  0  0  0  0  0  0  0  0  0  0
  133.5180  132.7900   91.5990 O   0  0  0  0  0  0  0  0  0  0  0  0
  132.8950  133.2500   93.6870 O   0  0  0  0  0  0  0  0  0  0  0  0
  133.4800  134.0200   93.5230 H   0  0  0  0  0  0  0  0  0  0  0  0
  134.8280  129.1200   96.0590 N   0  0  0  0  0  0  0  0  0  0  0  0
  134.8330  128.1430   96.3520 H   0  0  0  0  0  0  0  0  0  0  0  0
  135.7900  129.3500   95.8110 H   0  0  0  0  0  0  0  0  0  0  0  0
  1  2  1  0  0  0  0
  2  3  1  0  0  0  0
  3 11  1  1  0  0  0
  4  3  1  0  0  0  0
  5  7  1  6  0  0  0
  5  4  1  0  0  0  0
  6  1  1  0  0  0  0
  6  5  1  0  0  0  0
  7  9  1  0  0  0  0
  8  7  2  0  0  0  0
 10  9  1  0  0  0  0
 11 12  1  0  0  0  0
 13 11  1  0  0  0  0
M  END
>  <MODEL>
9

>  <REMARK>
 VINA RESULT:      -4.0      3.227      3.947
  3 active torsions:
  status: ('A' for Active; 'I' for Inactive)
    1  A    between atoms: C_3  and  N_4 
    2  A    between atoms: C_6  and  C_8 
    3  A    between atoms: C_8  and  O_10 

>  <TORSDO>
F 3

$$$$
