MODEL 1
REMARK VINA RESULT:      -3.7      0.000      0.000
REMARK  8 active torsions:
REMARK  status: ('A' for Active; 'I' for Inactive)
REMARK    1  A    between atoms: O_2  and  C_3 
REMARK    2  A    between atoms: C_3  and  C_5 
REMARK    3  A    between atoms: C_5  and  C_6 
REMARK    4  A    between atoms: C_5  and  O_8 
REMARK    5  A    between atoms: C_6  and  O_7 
REMARK    6  A    between atoms: O_8  and  C_9 
REMARK    7  A    between atoms: C_9  and  C_10 
REMARK    8  A    between atoms: C_10  and  O_11 
ROOT
ATOM      1  C   UNL d   1     133.566 128.127  92.908  0.00  0.00     0.244 C 
ENDROOT
BRANCH   1   2
ATOM      2  C   UNL d   1     133.371 127.588  94.325  0.00  0.00     0.289 C 
ATOM      3  O   UNL d   1     132.446 126.859  94.665  0.00  0.00    -0.262 OA
BRANCH   2   4
ATOM      4  O   UNL d   1     134.347 128.052  95.155  0.00  0.00    -0.324 OA
ATOM      5  C   UNL d   1     134.257 129.450  95.435  0.00  0.00     0.213 C 
ENDBRANCH   2   4
ENDBRANCH   1   2
BRANCH   1   6
ATOM      6  C   UNL d   1     134.330 127.085  92.090  0.00  0.00     0.206 C 
BRANCH   6   7
ATOM      7  O   UNL d   1     133.658 125.824  92.156  0.00  0.00    -0.398 OA
ATOM      8  H   UNL d   1     133.429 125.698  93.098  0.00  0.00     0.209 HD
ENDBRANCH   6   7
ENDBRANCH   1   6
BRANCH   1   9
ATOM      9  O   UNL d   1     132.309 128.338  92.244  0.00  0.00    -0.371 OA
BRANCH   9  10
ATOM     10  C   UNL d   1     131.886 129.710  92.264  0.00  0.00     0.200 C 
BRANCH  10  11
ATOM     11  C   UNL d   1     133.102 130.595  91.966  0.00  0.00     0.138 C 
ATOM     12  C   UNL d   1     133.090 131.861  92.808  0.00  0.00     0.041 C 
BRANCH  11  13
ATOM     13  O   UNL d   1     133.088 130.992  90.592  0.00  0.00    -0.394 OA
ATOM     14  H   UNL d   1     132.369 131.649  90.476  0.00  0.00     0.210 HD
ENDBRANCH  11  13
ENDBRANCH  10  11
ENDBRANCH   9  10
ENDBRANCH   1   9
TORSDOF 8
ENDMDL
MODEL 2
REMARK VINA RESULT:      -3.7     14.987     16.831
REMARK  8 active torsions:
REMARK  status: ('A' for Active; 'I' for Inactive)
REMARK    1  A    between atoms: O_2  and  C_3 
REMARK    2  A    between atoms: C_3  and  C_5 
REMARK    3  A    between atoms: C_5  and  C_6 
REMARK    4  A    between atoms: C_5  and  O_8 
REMARK    5  A    between atoms: C_6  and  O_7 
REMARK    6  A    between atoms: O_8  and  C_9 
REMARK    7  A    between atoms: C_9  and  C_10 
REMARK    8  A    between atoms: C_10  and  O_11 
ROOT
ATOM      1  C   UNL d   1     145.575 138.864  99.448  0.00  0.00     0.244 C 
ENDROOT
BRANCH   1   2
ATOM      2  C   UNL d   1     144.946 140.155  99.968  0.00  0.00     0.289 C 
ATOM      3  O   UNL d   1     145.128 140.609 101.093  0.00  0.00    -0.262 OA
BRANCH   2   4
ATOM      4  O   UNL d   1     144.137 140.711  99.023  0.00  0.00    -0.324 OA
ATOM      5  C   UNL d   1     144.841 141.399  97.986  0.00  0.00     0.213 C 
ENDBRANCH   2   4
ENDBRANCH   1   2
BRANCH   1   6
ATOM      6  C   UNL d   1     146.748 138.492 100.355  0.00  0.00     0.206 C 
BRANCH   6   7
ATOM      7  O   UNL d   1     146.506 137.226 100.974  0.00  0.00    -0.398 OA
ATOM      8  H   UNL d   1     146.170 137.431 101.868  0.00  0.00     0.209 HD
ENDBRANCH   6   7
ENDBRANCH   1   6
BRANCH   1   9
ATOM      9  O   UNL d   1     144.647 137.766  99.497  0.00  0.00    -0.371 OA
BRANCH   9  10
ATOM     10  C   UNL d   1     144.412 137.171  98.212  0.00  0.00     0.200 C 
BRANCH  10  11
ATOM     11  C   UNL d   1     144.260 135.657  98.400  0.00  0.00     0.138 C 
ATOM     12  C   UNL d   1     142.979 135.314  99.143  0.00  0.00     0.041 C 
BRANCH  11  13
ATOM     13  O   UNL d   1     145.354 135.151  99.171  0.00  0.00    -0.394 OA
ATOM     14  H   UNL d   1     146.072 135.817  99.147  0.00  0.00     0.210 HD
ENDBRANCH  11  13
ENDBRANCH  10  11
ENDBRANCH   9  10
ENDBRANCH   1   9
TORSDOF 8
ENDMDL
MODEL 3
REMARK VINA RESULT:      -3.7     13.096     14.823
REMARK  8 active torsions:
REMARK  status: ('A' for Active; 'I' for Inactive)
REMARK    1  A    between atoms: O_2  and  C_3 
REMARK    2  A    between atoms: C_3  and  C_5 
REMARK    3  A    between atoms: C_5  and  C_6 
REMARK    4  A    between atoms: C_5  and  O_8 
REMARK    5  A    between atoms: C_6  and  O_7 
REMARK    6  A    between atoms: O_8  and  C_9 
REMARK    7  A    between atoms: C_9  and  C_10 
REMARK    8  A    between atoms: C_10  and  O_11 
ROOT
ATOM      1  C   UNL d   1     143.993 135.622  99.030  0.00  0.00     0.244 C 
ENDROOT
BRANCH   1   2
ATOM      2  C   UNL d   1     142.568 135.083  98.909  0.00  0.00     0.289 C 
ATOM      3  O   UNL d   1     142.264 133.901  99.025  0.00  0.00    -0.262 OA
BRANCH   2   4
ATOM      4  O   UNL d   1     141.695 136.091  98.629  0.00  0.00    -0.324 OA
ATOM      5  C   UNL d   1     140.783 135.793  97.570  0.00  0.00     0.213 C 
ENDBRANCH   2   4
ENDBRANCH   1   2
BRANCH   1   6
ATOM      6  C   UNL d   1     144.849 134.988  97.933  0.00  0.00     0.206 C 
BRANCH   6   7
ATOM      7  O   UNL d   1     145.486 133.809  98.430  0.00  0.00    -0.398 OA
ATOM      8  H   UNL d   1     144.760 133.216  98.708  0.00  0.00     0.209 HD
ENDBRANCH   6   7
ENDBRANCH   1   6
BRANCH   1   9
ATOM      9  O   UNL d   1     144.041 137.044  98.826  0.00  0.00    -0.371 OA
BRANCH   9  10
ATOM     10  C   UNL d   1     145.378 137.549  98.698  0.00  0.00     0.200 C 
BRANCH  10  11
ATOM     11  C   UNL d   1     145.827 138.081 100.065  0.00  0.00     0.138 C 
ATOM     12  C   UNL d   1     146.754 139.277  99.921  0.00  0.00     0.041 C 
BRANCH  11  13
ATOM     13  O   UNL d   1     146.543 137.063 100.771  0.00  0.00    -0.394 OA
ATOM     14  H   UNL d   1     146.089 136.209 100.611  0.00  0.00     0.210 HD
ENDBRANCH  11  13
ENDBRANCH  10  11
ENDBRANCH   9  10
ENDBRANCH   1   9
TORSDOF 8
ENDMDL
MODEL 4
REMARK VINA RESULT:      -3.7     16.338     17.865
REMARK  8 active torsions:
REMARK  status: ('A' for Active; 'I' for Inactive)
REMARK    1  A    between atoms: O_2  and  C_3 
REMARK    2  A    between atoms: C_3  and  C_5 
REMARK    3  A    between atoms: C_5  and  C_6 
REMARK    4  A    between atoms: C_5  and  O_8 
REMARK    5  A    between atoms: C_6  and  O_7 
REMARK    6  A    between atoms: O_8  and  C_9 
REMARK    7  A    between atoms: C_9  and  C_10 
REMARK    8  A    between atoms: C_10  and  O_11 
ROOT
ATOM      1  C   UNL d   1     145.658 139.064 100.364  0.00  0.00     0.244 C 
ENDROOT
BRANCH   1   2
ATOM      2  C   UNL d   1     144.840 138.463  99.222  0.00  0.00     0.289 C 
ATOM      3  O   UNL d   1     143.875 139.010  98.701  0.00  0.00    -0.262 OA
BRANCH   2   4
ATOM      4  O   UNL d   1     145.314 137.230  98.888  0.00  0.00    -0.324 OA
ATOM      5  C   UNL d   1     145.149 136.897  97.508  0.00  0.00     0.213 C 
ENDBRANCH   2   4
ENDBRANCH   1   2
BRANCH   1   6
ATOM      6  C   UNL d   1     146.990 138.318 100.457  0.00  0.00     0.206 C 
BRANCH   6   7
ATOM      7  O   UNL d   1     146.860 137.196 101.334  0.00  0.00    -0.398 OA
ATOM      8  H   UNL d   1     145.899 137.043 101.424  0.00  0.00     0.209 HD
ENDBRANCH   6   7
ENDBRANCH   1   6
BRANCH   1   9
ATOM      9  O   UNL d   1     145.972 140.446 100.120  0.00  0.00    -0.371 OA
BRANCH   9  10
ATOM     10  C   UNL d   1     146.867 140.632  99.013  0.00  0.00     0.200 C 
BRANCH  10  11
ATOM     11  C   UNL d   1     146.394 141.848  98.207  0.00  0.00     0.138 C 
ATOM     12  C   UNL d   1     146.903 143.148  98.810  0.00  0.00     0.041 C 
BRANCH  11  13
ATOM     13  O   UNL d   1     144.964 141.904  98.207  0.00  0.00    -0.394 OA
ATOM     14  H   UNL d   1     144.648 141.511  97.366  0.00  0.00     0.210 HD
ENDBRANCH  11  13
ENDBRANCH  10  11
ENDBRANCH   9  10
ENDBRANCH   1   9
TORSDOF 8
ENDMDL
MODEL 5
REMARK VINA RESULT:      -3.7     10.427     12.208
REMARK  8 active torsions:
REMARK  status: ('A' for Active; 'I' for Inactive)
REMARK    1  A    between atoms: O_2  and  C_3 
REMARK    2  A    between atoms: C_3  and  C_5 
REMARK    3  A    between atoms: C_5  and  C_6 
REMARK    4  A    between atoms: C_5  and  O_8 
REMARK    5  A    between atoms: C_6  and  O_7 
REMARK    6  A    between atoms: O_8  and  C_9 
REMARK    7  A    between atoms: C_9  and  C_10 
REMARK    8  A    between atoms: C_10  and  O_11 
ROOT
ATOM      1  C   UNL d   1     142.944 134.919  99.147  0.00  0.00     0.244 C 
ENDROOT
BRANCH   1   2
ATOM      2  C   UNL d   1     143.098 133.464  98.707  0.00  0.00     0.289 C 
ATOM      3  O   UNL d   1     144.025 133.043  98.024  0.00  0.00    -0.262 OA
BRANCH   2   4
ATOM      4  O   UNL d   1     142.052 132.714  99.153  0.00  0.00    -0.324 OA
ATOM      5  C   UNL d   1     142.435 131.452  99.705  0.00  0.00     0.213 C 
ENDBRANCH   2   4
ENDBRANCH   1   2
BRANCH   1   6
ATOM      6  C   UNL d   1     144.089 135.735  98.546  0.00  0.00     0.206 C 
BRANCH   6   7
ATOM      7  O   UNL d   1     145.303 135.470  99.254  0.00  0.00    -0.398 OA
ATOM      8  H   UNL d   1     145.034 134.999 100.067  0.00  0.00     0.209 HD
ENDBRANCH   6   7
ENDBRANCH   1   6
BRANCH   1   9
ATOM      9  O   UNL d   1     141.721 135.495  98.657  0.00  0.00    -0.371 OA
BRANCH   9  10
ATOM     10  C   UNL d   1     141.661 135.551  97.224  0.00  0.00     0.200 C 
BRANCH  10  11
ATOM     11  C   UNL d   1     140.270 135.086  96.779  0.00  0.00     0.138 C 
ATOM     12  C   UNL d   1     139.213 136.144  97.056  0.00  0.00     0.041 C 
BRANCH  11  13
ATOM     13  O   UNL d   1     139.897 133.908  97.501  0.00  0.00    -0.394 OA
ATOM     14  H   UNL d   1     139.228 134.164  98.170  0.00  0.00     0.210 HD
ENDBRANCH  11  13
ENDBRANCH  10  11
ENDBRANCH   9  10
ENDBRANCH   1   9
TORSDOF 8
ENDMDL
MODEL 6
REMARK VINA RESULT:      -3.7      1.726      2.494
REMARK  8 active torsions:
REMARK  status: ('A' for Active; 'I' for Inactive)
REMARK    1  A    between atoms: O_2  and  C_3 
REMARK    2  A    between atoms: C_3  and  C_5 
REMARK    3  A    between atoms: C_5  and  C_6 
REMARK    4  A    between atoms: C_5  and  O_8 
REMARK    5  A    between atoms: C_6  and  O_7 
REMARK    6  A    between atoms: O_8  and  C_9 
REMARK    7  A    between atoms: C_9  and  C_10 
REMARK    8  A    between atoms: C_10  and  O_11 
ROOT
ATOM      1  C   UNL d   1     132.568 128.999  92.506  0.00  0.00     0.244 C 
ENDROOT
BRANCH   1   2
ATOM      2  C   UNL d   1     132.905 128.312  93.829  0.00  0.00     0.289 C 
ATOM      3  O   UNL d   1     132.987 127.097  93.975  0.00  0.00    -0.262 OA
BRANCH   2   4
ATOM      4  O   UNL d   1     133.070 129.231  94.820  0.00  0.00    -0.324 OA
ATOM      5  C   UNL d   1     134.345 129.171  95.464  0.00  0.00     0.213 C 
ENDBRANCH   2   4
ENDBRANCH   1   2
BRANCH   1   6
ATOM      6  C   UNL d   1     131.104 129.437  92.542  0.00  0.00     0.206 C 
BRANCH   6   7
ATOM      7  O   UNL d   1     130.407 128.730  93.571  0.00  0.00    -0.398 OA
ATOM      8  H   UNL d   1     131.097 128.426  94.193  0.00  0.00     0.209 HD
ENDBRANCH   6   7
ENDBRANCH   1   6
BRANCH   1   9
ATOM      9  O   UNL d   1     133.354 130.188  92.312  0.00  0.00    -0.371 OA
BRANCH   9  10
ATOM     10  C   UNL d   1     132.562 131.385  92.278  0.00  0.00     0.200 C 
BRANCH  10  11
ATOM     11  C   UNL d   1     133.468 132.573  92.620  0.00  0.00     0.138 C 
ATOM     12  C   UNL d   1     134.831 132.112  93.112  0.00  0.00     0.041 C 
BRANCH  11  13
ATOM     13  O   UNL d   1     132.875 133.353  93.663  0.00  0.00    -0.394 OA
ATOM     14  H   UNL d   1     133.206 134.272  93.576  0.00  0.00     0.210 HD
ENDBRANCH  11  13
ENDBRANCH  10  11
ENDBRANCH   9  10
ENDBRANCH   1   9
TORSDOF 8
ENDMDL
MODEL 7
REMARK VINA RESULT:      -3.6     14.930     16.455
REMARK  8 active torsions:
REMARK  status: ('A' for Active; 'I' for Inactive)
REMARK    1  A    between atoms: O_2  and  C_3 
REMARK    2  A    between atoms: C_3  and  C_5 
REMARK    3  A    between atoms: C_5  and  C_6 
REMARK    4  A    between atoms: C_5  and  O_8 
REMARK    5  A    between atoms: C_6  and  O_7 
REMARK    6  A    between atoms: O_8  and  C_9 
REMARK    7  A    between atoms: C_9  and  C_10 
REMARK    8  A    between atoms: C_10  and  O_11 
ROOT
ATOM      1  C   UNL d   1     145.093 138.721  98.859  0.00  0.00     0.244 C 
ENDROOT
BRANCH   1   2
ATOM      2  C   UNL d   1     145.893 139.262 100.043  0.00  0.00     0.289 C 
ATOM      3  O   UNL d   1     145.399 139.598 101.114  0.00  0.00    -0.262 OA
BRANCH   2   4
ATOM      4  O   UNL d   1     147.217 139.344  99.732  0.00  0.00    -0.324 OA
ATOM      5  C   UNL d   1     147.514 140.280  98.694  0.00  0.00     0.213 C 
ENDBRANCH   2   4
ENDBRANCH   1   2
BRANCH   1   6
ATOM      6  C   UNL d   1     144.980 137.203  98.999  0.00  0.00     0.206 C 
BRANCH   6   7
ATOM      7  O   UNL d   1     145.771 136.754 100.101  0.00  0.00    -0.398 OA
ATOM      8  H   UNL d   1     145.320 137.089 100.901  0.00  0.00     0.209 HD
ENDBRANCH   6   7
ENDBRANCH   1   6
BRANCH   1   9
ATOM      9  O   UNL d   1     143.752 139.239  98.845  0.00  0.00    -0.371 OA
BRANCH   9  10
ATOM     10  C   UNL d   1     142.833 138.400  98.128  0.00  0.00     0.200 C 
BRANCH  10  11
ATOM     11  C   UNL d   1     141.523 139.173  97.935  0.00  0.00     0.138 C 
ATOM     12  C   UNL d   1     141.632 140.596  98.460  0.00  0.00     0.041 C 
BRANCH  11  13
ATOM     13  O   UNL d   1     140.467 138.529  98.655  0.00  0.00    -0.394 OA
ATOM     14  H   UNL d   1     140.777 138.381  99.573  0.00  0.00     0.210 HD
ENDBRANCH  11  13
ENDBRANCH  10  11
ENDBRANCH   9  10
ENDBRANCH   1   9
TORSDOF 8
ENDMDL
MODEL 8
REMARK VINA RESULT:      -3.5      1.801      2.572
REMARK  8 active torsions:
REMARK  status: ('A' for Active; 'I' for Inactive)
REMARK    1  A    between atoms: O_2  and  C_3 
REMARK    2  A    between atoms: C_3  and  C_5 
REMARK    3  A    between atoms: C_5  and  C_6 
REMARK    4  A    between atoms: C_5  and  O_8 
REMARK    5  A    between atoms: C_6  and  O_7 
REMARK    6  A    between atoms: O_8  and  C_9 
REMARK    7  A    between atoms: C_9  and  C_10 
REMARK    8  A    between atoms: C_10  and  O_11 
ROOT
ATOM      1  C   UNL d   1     132.722 128.993  93.618  0.00  0.00     0.244 C 
ENDROOT
BRANCH   1   2
ATOM      2  C   UNL d   1     133.273 127.825  94.435  0.00  0.00     0.289 C 
ATOM      3  O   UNL d   1     132.731 126.729  94.525  0.00  0.00    -0.262 OA
BRANCH   2   4
ATOM      4  O   UNL d   1     134.426 128.182  95.067  0.00  0.00    -0.324 OA
ATOM      5  C   UNL d   1     134.321 129.382  95.836  0.00  0.00     0.213 C 
ENDBRANCH   2   4
ENDBRANCH   1   2
BRANCH   1   6
ATOM      6  C   UNL d   1     133.547 129.126  92.338  0.00  0.00     0.206 C 
BRANCH   6   7
ATOM      7  O   UNL d   1     134.327 127.944  92.135  0.00  0.00    -0.398 OA
ATOM      8  H   UNL d   1     134.874 128.124  91.345  0.00  0.00     0.209 HD
ENDBRANCH   6   7
ENDBRANCH   1   6
BRANCH   1   9
ATOM      9  O   UNL d   1     131.361 128.762  93.215  0.00  0.00    -0.371 OA
BRANCH   9  10
ATOM     10  C   UNL d   1     130.951 129.594  92.118  0.00  0.00     0.200 C 
BRANCH  10  11
ATOM     11  C   UNL d   1     129.466 129.331  91.841  0.00  0.00     0.138 C 
ATOM     12  C   UNL d   1     128.710 129.002  93.119  0.00  0.00     0.041 C 
BRANCH  11  13
ATOM     13  O   UNL d   1     129.327 128.213  90.959  0.00  0.00    -0.394 OA
ATOM     14  H   UNL d   1     128.751 127.553  91.400  0.00  0.00     0.210 HD
ENDBRANCH  11  13
ENDBRANCH  10  11
ENDBRANCH   9  10
ENDBRANCH   1   9
TORSDOF 8
ENDMDL
MODEL 9
REMARK VINA RESULT:      -3.4     14.420     16.421
REMARK  8 active torsions:
REMARK  status: ('A' for Active; 'I' for Inactive)
REMARK    1  A    between atoms: O_2  and  C_3 
REMARK    2  A    between atoms: C_3  and  C_5 
REMARK    3  A    between atoms: C_5  and  C_6 
REMARK    4  A    between atoms: C_5  and  O_8 
REMARK    5  A    between atoms: C_6  and  O_7 
REMARK    6  A    between atoms: O_8  and  C_9 
REMARK    7  A    between atoms: C_9  and  C_10 
REMARK    8  A    between atoms: C_10  and  O_11 
ROOT
ATOM      1  C   UNL d   1     141.920 142.850  96.565  0.00  0.00     0.244 C 
ENDROOT
BRANCH   1   2
ATOM      2  C   UNL d   1     142.025 142.267  95.156  0.00  0.00     0.289 C 
ATOM      3  O   UNL d   1     142.859 142.612  94.326  0.00  0.00    -0.262 OA
BRANCH   2   4
ATOM      4  O   UNL d   1     141.050 141.339  94.945  0.00  0.00    -0.324 OA
ATOM      5  C   UNL d   1     140.713 141.151  93.569  0.00  0.00     0.213 C 
ENDBRANCH   2   4
ENDBRANCH   1   2
BRANCH   1   6
ATOM      6  C   UNL d   1     140.766 143.853  96.594  0.00  0.00     0.206 C 
BRANCH   6   7
ATOM      7  O   UNL d   1     140.456 144.279  95.265  0.00  0.00    -0.398 OA
ATOM      8  H   UNL d   1     139.551 143.954  95.090  0.00  0.00     0.209 HD
ENDBRANCH   6   7
ENDBRANCH   1   6
BRANCH   1   9
ATOM      9  O   UNL d   1     141.614 141.834  97.536  0.00  0.00    -0.371 OA
BRANCH   9  10
ATOM     10  C   UNL d   1     142.764 141.068  97.928  0.00  0.00     0.200 C 
BRANCH  10  11
ATOM     11  C   UNL d   1     142.340 139.602  98.075  0.00  0.00     0.138 C 
ATOM     12  C   UNL d   1     143.543 138.688  98.245  0.00  0.00     0.041 C 
BRANCH  11  13
ATOM     13  O   UNL d   1     141.641 139.178  96.901  0.00  0.00    -0.394 OA
ATOM     14  H   UNL d   1     142.308 138.973  96.212  0.00  0.00     0.210 HD
ENDBRANCH  11  13
ENDBRANCH  10  11
ENDBRANCH   9  10
ENDBRANCH   1   9
TORSDOF 8
ENDMDL
