../results/processed/lowest_conf/7XP6/docked/s1.pdbqt
 OpenBabel07252415363D

 14 13  0  0  1  0  0  0  0  0999 V2000
  133.5660  128.1270   92.9080 C   0  0  1  0  0  3  0  0  0  0  0  0
  133.3710  127.5880   94.3250 C   0  0  0  0  0  0  0  0  0  0  0  0
  132.4460  126.8590   94.6650 O   0  0  0  0  0  0  0  0  0  0  0  0
  134.3470  128.0520   95.1550 O   0  0  0  0  0  0  0  0  0  0  0  0
  134.2570  129.4500   95.4350 C   0  0  0  0  0  1  0  0  0  0  0  0
  134.3300  127.0850   92.0900 C   0  0  0  0  0  2  0  0  0  0  0  0
  133.6580  125.8240   92.1560 O   0  0  0  0  0  0  0  0  0  0  0  0
  133.4290  125.6980   93.0980 H   0  0  0  0  0  0  0  0  0  0  0  0
  132.3090  128.3380   92.2440 O   0  0  0  0  0  0  0  0  0  0  0  0
  131.8860  129.7100   92.2640 C   0  0  0  0  0  2  0  0  0  0  0  0
  133.1020  130.5950   91.9660 C   0  0  2  0  0  3  0  0  0  0  0  0
  133.0900  131.8610   92.8080 C   0  0  0  0  0  1  0  0  0  0  0  0
  133.0880  130.9920   90.5920 O   0  0  0  0  0  0  0  0  0  0  0  0
  132.3690  131.6490   90.4760 H   0  0  0  0  0  0  0  0  0  0  0  0
  1  6  1  6  0  0  0
  1  2  1  0  0  0  0
  2  3  2  0  0  0  0
  2  4  1  0  0  0  0
  4  5  1  0  0  0  0
  6  7  1  0  0  0  0
  7  8  1  0  0  0  0
  9 10  1  0  0  0  0
  9  1  1  0  0  0  0
 11 10  1  0  0  0  0
 11 12  1  1  0  0  0
 13 11  1  0  0  0  0
 14 13  1  0  0  0  0
M  END
>  <MODEL>
1

>  <REMARK>
 VINA RESULT:      -3.7      0.000      0.000
  8 active torsions:
  status: ('A' for Active; 'I' for Inactive)
    1  A    between atoms: O_2  and  C_3 
    2  A    between atoms: C_3  and  C_5 
    3  A    between atoms: C_5  and  C_6 
    4  A    between atoms: C_5  and  O_8 
    5  A    between atoms: C_6  and  O_7 
    6  A    between atoms: O_8  and  C_9 
    7  A    between atoms: C_9  and  C_10 
    8  A    between atoms: C_10  and  O_11 

>  <TORSDO>
F 8

$$$$
../results/processed/lowest_conf/7XP6/docked/s1.pdbqt
 OpenBabel07252415363D

 14 13  0  0  1  0  0  0  0  0999 V2000
  145.5750  138.8640   99.4480 C   0  0  1  0  0  3  0  0  0  0  0  0
  144.9460  140.1550   99.9680 C   0  0  0  0  0  0  0  0  0  0  0  0
  145.1280  140.6090  101.0930 O   0  0  0  0  0  0  0  0  0  0  0  0
  144.1370  140.7110   99.0230 O   0  0  0  0  0  0  0  0  0  0  0  0
  144.8410  141.3990   97.9860 C   0  0  0  0  0  1  0  0  0  0  0  0
  146.7480  138.4920  100.3550 C   0  0  0  0  0  2  0  0  0  0  0  0
  146.5060  137.2260  100.9740 O   0  0  0  0  0  0  0  0  0  0  0  0
  146.1700  137.4310  101.8680 H   0  0  0  0  0  0  0  0  0  0  0  0
  144.6470  137.7660   99.4970 O   0  0  0  0  0  0  0  0  0  0  0  0
  144.4120  137.1710   98.2120 C   0  0  0  0  0  2  0  0  0  0  0  0
  144.2600  135.6570   98.4000 C   0  0  2  0  0  3  0  0  0  0  0  0
  142.9790  135.3140   99.1430 C   0  0  0  0  0  1  0  0  0  0  0  0
  145.3540  135.1510   99.1710 O   0  0  0  0  0  0  0  0  0  0  0  0
  146.0720  135.8170   99.1470 H   0  0  0  0  0  0  0  0  0  0  0  0
  1  9  1  0  0  0  0
  1  2  1  0  0  0  0
  1  6  1  1  0  0  0
  2  3  2  0  0  0  0
  4  2  1  0  0  0  0
  5  4  1  0  0  0  0
  6  7  1  0  0  0  0
  7  8  1  0  0  0  0
 10 11  1  0  0  0  0
 10  9  1  0  0  0  0
 11 12  1  1  0  0  0
 11 13  1  0  0  0  0
 14 13  1  0  0  0  0
M  END
>  <MODEL>
2

>  <REMARK>
 VINA RESULT:      -3.7     14.987     16.831
  8 active torsions:
  status: ('A' for Active; 'I' for Inactive)
    1  A    between atoms: O_2  and  C_3 
    2  A    between atoms: C_3  and  C_5 
    3  A    between atoms: C_5  and  C_6 
    4  A    between atoms: C_5  and  O_8 
    5  A    between atoms: C_6  and  O_7 
    6  A    between atoms: O_8  and  C_9 
    7  A    between atoms: C_9  and  C_10 
    8  A    between atoms: C_10  and  O_11 

>  <TORSDO>
F 8

$$$$
../results/processed/lowest_conf/7XP6/docked/s1.pdbqt
 OpenBabel07252415363D

 14 13  0  0  1  0  0  0  0  0999 V2000
  143.9930  135.6220   99.0300 C   0  0  1  0  0  3  0  0  0  0  0  0
  142.5680  135.0830   98.9090 C   0  0  0  0  0  0  0  0  0  0  0  0
  142.2640  133.9010   99.0250 O   0  0  0  0  0  0  0  0  0  0  0  0
  141.6950  136.0910   98.6290 O   0  0  0  0  0  0  0  0  0  0  0  0
  140.7830  135.7930   97.5700 C   0  0  0  0  0  1  0  0  0  0  0  0
  144.8490  134.9880   97.9330 C   0  0  0  0  0  2  0  0  0  0  0  0
  145.4860  133.8090   98.4300 O   0  0  0  0  0  0  0  0  0  0  0  0
  144.7600  133.2160   98.7080 H   0  0  0  0  0  0  0  0  0  0  0  0
  144.0410  137.0440   98.8260 O   0  0  0  0  0  0  0  0  0  0  0  0
  145.3780  137.5490   98.6980 C   0  0  0  0  0  2  0  0  0  0  0  0
  145.8270  138.0810  100.0650 C   0  0  2  0  0  3  0  0  0  0  0  0
  146.7540  139.2770   99.9210 C   0  0  0  0  0  1  0  0  0  0  0  0
  146.5430  137.0630  100.7710 O   0  0  0  0  0  0  0  0  0  0  0  0
  146.0890  136.2090  100.6110 H   0  0  0  0  0  0  0  0  0  0  0  0
  1  6  1  6  0  0  0
  2  3  2  0  0  0  0
  2  1  1  0  0  0  0
  4  2  1  0  0  0  0
  5  4  1  0  0  0  0
  6  7  1  0  0  0  0
  7  8  1  0  0  0  0
  9  1  1  0  0  0  0
 10  9  1  0  0  0  0
 10 11  1  0  0  0  0
 11 12  1  6  0  0  0
 11 13  1  0  0  0  0
 14 13  1  0  0  0  0
M  END
>  <MODEL>
3

>  <REMARK>
 VINA RESULT:      -3.7     13.096     14.823
  8 active torsions:
  status: ('A' for Active; 'I' for Inactive)
    1  A    between atoms: O_2  and  C_3 
    2  A    between atoms: C_3  and  C_5 
    3  A    between atoms: C_5  and  C_6 
    4  A    between atoms: C_5  and  O_8 
    5  A    between atoms: C_6  and  O_7 
    6  A    between atoms: O_8  and  C_9 
    7  A    between atoms: C_9  and  C_10 
    8  A    between atoms: C_10  and  O_11 

>  <TORSDO>
F 8

$$$$
../results/processed/lowest_conf/7XP6/docked/s1.pdbqt
 OpenBabel07252415363D

 14 13  0  0  1  0  0  0  0  0999 V2000
  145.6580  139.0640  100.3640 C   0  0  1  0  0  3  0  0  0  0  0  0
  144.8400  138.4630   99.2220 C   0  0  0  0  0  0  0  0  0  0  0  0
  143.8750  139.0100   98.7010 O   0  0  0  0  0  0  0  0  0  0  0  0
  145.3140  137.2300   98.8880 O   0  0  0  0  0  0  0  0  0  0  0  0
  145.1490  136.8970   97.5080 C   0  0  0  0  0  1  0  0  0  0  0  0
  146.9900  138.3180  100.4570 C   0  0  0  0  0  2  0  0  0  0  0  0
  146.8600  137.1960  101.3340 O   0  0  0  0  0  0  0  0  0  0  0  0
  145.8990  137.0430  101.4240 H   0  0  0  0  0  0  0  0  0  0  0  0
  145.9720  140.4460  100.1200 O   0  0  0  0  0  0  0  0  0  0  0  0
  146.8670  140.6320   99.0130 C   0  0  0  0  0  2  0  0  0  0  0  0
  146.3940  141.8480   98.2070 C   0  0  2  0  0  3  0  0  0  0  0  0
  146.9030  143.1480   98.8100 C   0  0  0  0  0  1  0  0  0  0  0  0
  144.9640  141.9040   98.2070 O   0  0  0  0  0  0  0  0  0  0  0  0
  144.6480  141.5110   97.3660 H   0  0  0  0  0  0  0  0  0  0  0  0
  1  6  1  6  0  0  0
  2  1  1  0  0  0  0
  3  2  2  0  0  0  0
  4  2  1  0  0  0  0
  5  4  1  0  0  0  0
  6  7  1  0  0  0  0
  7  8  1  0  0  0  0
  9  1  1  0  0  0  0
 10  9  1  0  0  0  0
 11 13  1  0  0  0  0
 11 12  1  1  0  0  0
 11 10  1  0  0  0  0
 14 13  1  0  0  0  0
M  END
>  <MODEL>
4

>  <REMARK>
 VINA RESULT:      -3.7     16.338     17.865
  8 active torsions:
  status: ('A' for Active; 'I' for Inactive)
    1  A    between atoms: O_2  and  C_3 
    2  A    between atoms: C_3  and  C_5 
    3  A    between atoms: C_5  and  C_6 
    4  A    between atoms: C_5  and  O_8 
    5  A    between atoms: C_6  and  O_7 
    6  A    between atoms: O_8  and  C_9 
    7  A    between atoms: C_9  and  C_10 
    8  A    between atoms: C_10  and  O_11 

>  <TORSDO>
F 8

$$$$
../results/processed/lowest_conf/7XP6/docked/s1.pdbqt
 OpenBabel07252415363D

 14 13  0  0  1  0  0  0  0  0999 V2000
  142.9440  134.9190   99.1470 C   0  0  1  0  0  3  0  0  0  0  0  0
  143.0980  133.4640   98.7070 C   0  0  0  0  0  0  0  0  0  0  0  0
  144.0250  133.0430   98.0240 O   0  0  0  0  0  0  0  0  0  0  0  0
  142.0520  132.7140   99.1530 O   0  0  0  0  0  0  0  0  0  0  0  0
  142.4350  131.4520   99.7050 C   0  0  0  0  0  1  0  0  0  0  0  0
  144.0890  135.7350   98.5460 C   0  0  0  0  0  2  0  0  0  0  0  0
  145.3030  135.4700   99.2540 O   0  0  0  0  0  0  0  0  0  0  0  0
  145.0340  134.9990  100.0670 H   0  0  0  0  0  0  0  0  0  0  0  0
  141.7210  135.4950   98.6570 O   0  0  0  0  0  0  0  0  0  0  0  0
  141.6610  135.5510   97.2240 C   0  0  0  0  0  2  0  0  0  0  0  0
  140.2700  135.0860   96.7790 C   0  0  2  0  0  3  0  0  0  0  0  0
  139.2130  136.1440   97.0560 C   0  0  0  0  0  1  0  0  0  0  0  0
  139.8970  133.9080   97.5010 O   0  0  0  0  0  0  0  0  0  0  0  0
  139.2280  134.1640   98.1700 H   0  0  0  0  0  0  0  0  0  0  0  0
  1  6  1  6  0  0  0
  2  1  1  0  0  0  0
  2  4  1  0  0  0  0
  3  2  2  0  0  0  0
  4  5  1  0  0  0  0
  6  7  1  0  0  0  0
  7  8  1  0  0  0  0
  9  1  1  0  0  0  0
 10  9  1  0  0  0  0
 11 12  1  1  0  0  0
 11 10  1  0  0  0  0
 11 13  1  0  0  0  0
 13 14  1  0  0  0  0
M  END
>  <MODEL>
5

>  <REMARK>
 VINA RESULT:      -3.7     10.427     12.208
  8 active torsions:
  status: ('A' for Active; 'I' for Inactive)
    1  A    between atoms: O_2  and  C_3 
    2  A    between atoms: C_3  and  C_5 
    3  A    between atoms: C_5  and  C_6 
    4  A    between atoms: C_5  and  O_8 
    5  A    between atoms: C_6  and  O_7 
    6  A    between atoms: O_8  and  C_9 
    7  A    between atoms: C_9  and  C_10 
    8  A    between atoms: C_10  and  O_11 

>  <TORSDO>
F 8

$$$$
../results/processed/lowest_conf/7XP6/docked/s1.pdbqt
 OpenBabel07252415363D

 14 13  0  0  1  0  0  0  0  0999 V2000
  132.5680  128.9990   92.5060 C   0  0  1  0  0  3  0  0  0  0  0  0
  132.9050  128.3120   93.8290 C   0  0  0  0  0  0  0  0  0  0  0  0
  132.9870  127.0970   93.9750 O   0  0  0  0  0  0  0  0  0  0  0  0
  133.0700  129.2310   94.8200 O   0  0  0  0  0  0  0  0  0  0  0  0
  134.3450  129.1710   95.4640 C   0  0  0  0  0  1  0  0  0  0  0  0
  131.1040  129.4370   92.5420 C   0  0  0  0  0  2  0  0  0  0  0  0
  130.4070  128.7300   93.5710 O   0  0  0  0  0  0  0  0  0  0  0  0
  131.0970  128.4260   94.1930 H   0  0  0  0  0  0  0  0  0  0  0  0
  133.3540  130.1880   92.3120 O   0  0  0  0  0  0  0  0  0  0  0  0
  132.5620  131.3850   92.2780 C   0  0  0  0  0  2  0  0  0  0  0  0
  133.4680  132.5730   92.6200 C   0  0  2  0  0  3  0  0  0  0  0  0
  134.8310  132.1120   93.1120 C   0  0  0  0  0  1  0  0  0  0  0  0
  132.8750  133.3530   93.6630 O   0  0  0  0  0  0  0  0  0  0  0  0
  133.2060  134.2720   93.5760 H   0  0  0  0  0  0  0  0  0  0  0  0
  1  6  1  1  0  0  0
  1  2  1  0  0  0  0
  2  3  2  0  0  0  0
  2  4  1  0  0  0  0
  4  5  1  0  0  0  0
  6  7  1  0  0  0  0
  7  8  1  0  0  0  0
  9  1  1  0  0  0  0
 10  9  1  0  0  0  0
 10 11  1  0  0  0  0
 11 12  1  1  0  0  0
 11 13  1  0  0  0  0
 14 13  1  0  0  0  0
M  END
>  <MODEL>
6

>  <REMARK>
 VINA RESULT:      -3.7      1.726      2.494
  8 active torsions:
  status: ('A' for Active; 'I' for Inactive)
    1  A    between atoms: O_2  and  C_3 
    2  A    between atoms: C_3  and  C_5 
    3  A    between atoms: C_5  and  C_6 
    4  A    between atoms: C_5  and  O_8 
    5  A    between atoms: C_6  and  O_7 
    6  A    between atoms: O_8  and  C_9 
    7  A    between atoms: C_9  and  C_10 
    8  A    between atoms: C_10  and  O_11 

>  <TORSDO>
F 8

$$$$
../results/processed/lowest_conf/7XP6/docked/s1.pdbqt
 OpenBabel07252415363D

 14 13  0  0  1  0  0  0  0  0999 V2000
  145.0930  138.7210   98.8590 C   0  0  1  0  0  3  0  0  0  0  0  0
  145.8930  139.2620  100.0430 C   0  0  0  0  0  0  0  0  0  0  0  0
  145.3990  139.5980  101.1140 O   0  0  0  0  0  0  0  0  0  0  0  0
  147.2170  139.3440   99.7320 O   0  0  0  0  0  0  0  0  0  0  0  0
  147.5140  140.2800   98.6940 C   0  0  0  0  0  1  0  0  0  0  0  0
  144.9800  137.2030   98.9990 C   0  0  0  0  0  2  0  0  0  0  0  0
  145.7710  136.7540  100.1010 O   0  0  0  0  0  0  0  0  0  0  0  0
  145.3200  137.0890  100.9010 H   0  0  0  0  0  0  0  0  0  0  0  0
  143.7520  139.2390   98.8450 O   0  0  0  0  0  0  0  0  0  0  0  0
  142.8330  138.4000   98.1280 C   0  0  0  0  0  2  0  0  0  0  0  0
  141.5230  139.1730   97.9350 C   0  0  2  0  0  3  0  0  0  0  0  0
  141.6320  140.5960   98.4600 C   0  0  0  0  0  1  0  0  0  0  0  0
  140.4670  138.5290   98.6550 O   0  0  0  0  0  0  0  0  0  0  0  0
  140.7770  138.3810   99.5730 H   0  0  0  0  0  0  0  0  0  0  0  0
  1  6  1  1  0  0  0
  1  2  1  0  0  0  0
  2  3  2  0  0  0  0
  4  2  1  0  0  0  0
  5  4  1  0  0  0  0
  6  7  1  0  0  0  0
  7  8  1  0  0  0  0
  9  1  1  0  0  0  0
 10  9  1  0  0  0  0
 11 10  1  0  0  0  0
 11 12  1  1  0  0  0
 11 13  1  0  0  0  0
 13 14  1  0  0  0  0
M  END
>  <MODEL>
7

>  <REMARK>
 VINA RESULT:      -3.6     14.930     16.455
  8 active torsions:
  status: ('A' for Active; 'I' for Inactive)
    1  A    between atoms: O_2  and  C_3 
    2  A    between atoms: C_3  and  C_5 
    3  A    between atoms: C_5  and  C_6 
    4  A    between atoms: C_5  and  O_8 
    5  A    between atoms: C_6  and  O_7 
    6  A    between atoms: O_8  and  C_9 
    7  A    between atoms: C_9  and  C_10 
    8  A    between atoms: C_10  and  O_11 

>  <TORSDO>
F 8

$$$$
../results/processed/lowest_conf/7XP6/docked/s1.pdbqt
 OpenBabel07252415363D

 14 13  0  0  1  0  0  0  0  0999 V2000
  132.7220  128.9930   93.6180 C   0  0  1  0  0  3  0  0  0  0  0  0
  133.2730  127.8250   94.4350 C   0  0  0  0  0  0  0  0  0  0  0  0
  132.7310  126.7290   94.5250 O   0  0  0  0  0  0  0  0  0  0  0  0
  134.4260  128.1820   95.0670 O   0  0  0  0  0  0  0  0  0  0  0  0
  134.3210  129.3820   95.8360 C   0  0  0  0  0  1  0  0  0  0  0  0
  133.5470  129.1260   92.3380 C   0  0  0  0  0  2  0  0  0  0  0  0
  134.3270  127.9440   92.1350 O   0  0  0  0  0  0  0  0  0  0  0  0
  134.8740  128.1240   91.3450 H   0  0  0  0  0  0  0  0  0  0  0  0
  131.3610  128.7620   93.2150 O   0  0  0  0  0  0  0  0  0  0  0  0
  130.9510  129.5940   92.1180 C   0  0  0  0  0  2  0  0  0  0  0  0
  129.4660  129.3310   91.8410 C   0  0  2  0  0  3  0  0  0  0  0  0
  128.7100  129.0020   93.1190 C   0  0  0  0  0  1  0  0  0  0  0  0
  129.3270  128.2130   90.9590 O   0  0  0  0  0  0  0  0  0  0  0  0
  128.7510  127.5530   91.4000 H   0  0  0  0  0  0  0  0  0  0  0  0
  1  6  1  6  0  0  0
  1  2  1  0  0  0  0
  2  3  2  0  0  0  0
  2  4  1  0  0  0  0
  4  5  1  0  0  0  0
  7  6  1  0  0  0  0
  8  7  1  0  0  0  0
  9  1  1  0  0  0  0
 10  9  1  0  0  0  0
 11 10  1  0  0  0  0
 11 12  1  1  0  0  0
 13 14  1  0  0  0  0
 13 11  1  0  0  0  0
M  END
>  <MODEL>
8

>  <REMARK>
 VINA RESULT:      -3.5      1.801      2.572
  8 active torsions:
  status: ('A' for Active; 'I' for Inactive)
    1  A    between atoms: O_2  and  C_3 
    2  A    between atoms: C_3  and  C_5 
    3  A    between atoms: C_5  and  C_6 
    4  A    between atoms: C_5  and  O_8 
    5  A    between atoms: C_6  and  O_7 
    6  A    between atoms: O_8  and  C_9 
    7  A    between atoms: C_9  and  C_10 
    8  A    between atoms: C_10  and  O_11 

>  <TORSDO>
F 8

$$$$
../results/processed/lowest_conf/7XP6/docked/s1.pdbqt
 OpenBabel07252415363D

 14 13  0  0  1  0  0  0  0  0999 V2000
  141.9200  142.8500   96.5650 C   0  0  1  0  0  3  0  0  0  0  0  0
  142.0250  142.2670   95.1560 C   0  0  0  0  0  0  0  0  0  0  0  0
  142.8590  142.6120   94.3260 O   0  0  0  0  0  0  0  0  0  0  0  0
  141.0500  141.3390   94.9450 O   0  0  0  0  0  0  0  0  0  0  0  0
  140.7130  141.1510   93.5690 C   0  0  0  0  0  1  0  0  0  0  0  0
  140.7660  143.8530   96.5940 C   0  0  0  0  0  2  0  0  0  0  0  0
  140.4560  144.2790   95.2650 O   0  0  0  0  0  0  0  0  0  0  0  0
  139.5510  143.9540   95.0900 H   0  0  0  0  0  0  0  0  0  0  0  0
  141.6140  141.8340   97.5360 O   0  0  0  0  0  0  0  0  0  0  0  0
  142.7640  141.0680   97.9280 C   0  0  0  0  0  2  0  0  0  0  0  0
  142.3400  139.6020   98.0750 C   0  0  2  0  0  3  0  0  0  0  0  0
  143.5430  138.6880   98.2450 C   0  0  0  0  0  1  0  0  0  0  0  0
  141.6410  139.1780   96.9010 O   0  0  0  0  0  0  0  0  0  0  0  0
  142.3080  138.9730   96.2120 H   0  0  0  0  0  0  0  0  0  0  0  0
  1  6  1  6  0  0  0
  1  9  1  0  0  0  0
  2  1  1  0  0  0  0
  3  2  2  0  0  0  0
  4  2  1  0  0  0  0
  5  4  1  0  0  0  0
  7  6  1  0  0  0  0
  8  7  1  0  0  0  0
  9 10  1  0  0  0  0
 10 11  1  0  0  0  0
 11 12  1  6  0  0  0
 13 11  1  0  0  0  0
 14 13  1  0  0  0  0
M  END
>  <MODEL>
9

>  <REMARK>
 VINA RESULT:      -3.4     14.420     16.421
  8 active torsions:
  status: ('A' for Active; 'I' for Inactive)
    1  A    between atoms: O_2  and  C_3 
    2  A    between atoms: C_3  and  C_5 
    3  A    between atoms: C_5  and  C_6 
    4  A    between atoms: C_5  and  O_8 
    5  A    between atoms: C_6  and  O_7 
    6  A    between atoms: O_8  and  C_9 
    7  A    between atoms: C_9  and  C_10 
    8  A    between atoms: C_10  and  O_11 

>  <TORSDO>
F 8

$$$$
