../results/processed/lowest_conf/7XP6/docked/s1c.pdbqt
 OpenBabel07252415363D

 31 32  0  0  1  0  0  0  0  0999 V2000
  144.5370  140.9230   97.0970 O   0  0  0  0  0  0  0  0  0  0  0  0
  145.2900  139.9400   97.8290 C   0  0  2  0  0  3  0  0  0  0  0  0
  144.5350  138.7310   97.9170 O   0  0  0  0  0  0  0  0  0  0  0  0
  145.2420  137.7060   98.6220 C   0  0  1  0  0  3  0  0  0  0  0  0
  145.5570  138.1270  100.0730 C   0  0  2  0  0  3  0  0  0  0  0  0
  146.2650  139.4890  100.1020 C   0  0  2  0  0  3  0  0  0  0  0  0
  145.5330  140.5140   99.2420 C   0  0  2  0  0  3  0  0  0  0  0  0
  144.3750  136.4390   98.5880 C   0  0  0  0  0  2  0  0  0  0  0  0
  145.0630  135.3270   99.1560 O   0  0  0  0  0  0  0  0  0  0  0  0
  144.9570  134.5890   98.5280 H   0  0  0  0  0  0  0  0  0  0  0  0
  146.4180  137.1750  100.7180 O   0  0  0  0  0  0  0  0  0  0  0  0
  147.2750  137.6370  100.8600 H   0  0  0  0  0  0  0  0  0  0  0  0
  147.6100  139.3250   99.6290 O   0  0  0  0  0  0  0  0  0  0  0  0
  147.9000  140.2370   99.4100 H   0  0  0  0  0  0  0  0  0  0  0  0
  144.2770  140.8420   99.8680 O   0  0  0  0  0  0  0  0  0  0  0  0
  144.2360  141.8180   99.8740 H   0  0  0  0  0  0  0  0  0  0  0  0
  145.3350  142.0990   96.7930 C   0  0  1  0  0  3  0  0  0  0  0  0
  146.5190  141.6590   95.9100 C   0  0  1  0  0  3  0  0  0  0  0  0
  146.0770  141.1580   94.6330 O   0  0  0  0  0  0  0  0  0  0  0  0
  145.2240  142.0120   93.8790 C   0  0  1  0  0  3  0  0  0  0  0  0
  144.0050  142.5080   94.6770 C   0  0  2  0  0  3  0  0  0  0  0  0
  144.4470  143.0920   96.0250 C   0  0  1  0  0  3  0  0  0  0  0  0
  147.6070  142.7360   95.7720 C   0  0  0  0  0  2  0  0  0  0  0  0
  148.5580  142.3620   94.7820 O   0  0  0  0  0  0  0  0  0  0  0  0
  148.1960  141.5860   94.3180 H   0  0  0  0  0  0  0  0  0  0  0  0
  145.9700  143.1020   93.3630 O   0  0  0  0  0  0  0  0  0  0  0  0
  146.1060  142.8960   92.4210 H   0  0  0  0  0  0  0  0  0  0  0  0
  143.0720  141.4340   94.9080 O   0  0  0  0  0  0  0  0  0  0  0  0
  142.7070  141.5790   95.8060 H   0  0  0  0  0  0  0  0  0  0  0  0
  143.2910  143.4110   96.8160 O   0  0  0  0  0  0  0  0  0  0  0  0
  143.6420  143.7690   97.6570 H   0  0  0  0  0  0  0  0  0  0  0  0
  2  1  1  6  0  0  0
  2  3  1  0  0  0  0
  2  7  1  0  0  0  0
  3  4  1  0  0  0  0
  4  8  1  1  0  0  0
  4  5  1  0  0  0  0
  5  6  1  0  0  0  0
  5 11  1  6  0  0  0
  6 13  1  6  0  0  0
  7 15  1  1  0  0  0
  7  6  1  0  0  0  0
  8  9  1  0  0  0  0
 10  9  1  0  0  0  0
 11 12  1  0  0  0  0
 14 13  1  0  0  0  0
 15 16  1  0  0  0  0
 17  1  1  6  0  0  0
 18 23  1  6  0  0  0
 18 17  1  0  0  0  0
 19 18  1  0  0  0  0
 20 26  1  1  0  0  0
 20 19  1  0  0  0  0
 20 21  1  0  0  0  0
 21 28  1  1  0  0  0
 21 22  1  0  0  0  0
 22 17  1  0  0  0  0
 22 30  1  1  0  0  0
 24 23  1  0  0  0  0
 25 24  1  0  0  0  0
 27 26  1  0  0  0  0
 28 29  1  0  0  0  0
 30 31  1  0  0  0  0
M  END
>  <MODEL>
1

>  <REMARK>
 VINA RESULT:      -5.0      0.000      0.000
  12 active torsions:
  status: ('A' for Active; 'I' for Inactive)
    1  A    between atoms: O_1  and  C_2 
    2  A    between atoms: C_2  and  C_3 
    3  A    between atoms: C_5  and  O_6 
    4  A    between atoms: O_6  and  C_7 
    5  A    between atoms: C_8  and  C_9 
    6  A    between atoms: C_9  and  O_10 
    7  A    between atoms: C_12  and  O_13 
    8  A    between atoms: C_14  and  O_15 
    9  A    between atoms: C_16  and  O_17 
   10  A    between atoms: C_18  and  O_19 
   11  A    between atoms: C_20  and  O_21 
   12  A    between atoms: C_22  and  O_23 

>  <TORSDO>
F 12

$$$$
../results/processed/lowest_conf/7XP6/docked/s1c.pdbqt
 OpenBabel07252415363D

 31 32  0  0  1  0  0  0  0  0999 V2000
  143.3070  139.7860   96.1340 O   0  0  0  0  0  0  0  0  0  0  0  0
  143.3490  138.8210   97.2010 C   0  0  2  0  0  3  0  0  0  0  0  0
  144.6120  138.8980   97.8630 O   0  0  0  0  0  0  0  0  0  0  0  0
  144.7070  137.9710   98.9480 C   0  0  1  0  0  3  0  0  0  0  0  0
  144.5570  136.5130   98.4670 C   0  0  2  0  0  3  0  0  0  0  0  0
  143.2800  136.3450   97.6300 C   0  0  2  0  0  3  0  0  0  0  0  0
  143.1720  137.4280   96.5610 C   0  0  2  0  0  3  0  0  0  0  0  0
  146.0660  138.1930   99.6290 C   0  0  0  0  0  2  0  0  0  0  0  0
  146.2500  137.2950  100.7210 O   0  0  0  0  0  0  0  0  0  0  0  0
  146.8500  136.5960  100.4030 H   0  0  0  0  0  0  0  0  0  0  0  0
  144.4730  135.6020   99.5750 O   0  0  0  0  0  0  0  0  0  0  0  0
  144.0760  134.7760   99.2180 H   0  0  0  0  0  0  0  0  0  0  0  0
  142.1410  136.4020   98.5010 O   0  0  0  0  0  0  0  0  0  0  0  0
  142.1840  137.3010   98.8920 H   0  0  0  0  0  0  0  0  0  0  0  0
  144.1880  137.2060   95.5630 O   0  0  0  0  0  0  0  0  0  0  0  0
  144.3880  138.0890   95.1950 H   0  0  0  0  0  0  0  0  0  0  0  0
  142.0570  140.5270   96.1230 C   0  0  1  0  0  3  0  0  0  0  0  0
  142.3780  142.0100   96.3850 C   0  0  1  0  0  3  0  0  0  0  0  0
  143.1690  142.5820   95.3230 O   0  0  0  0  0  0  0  0  0  0  0  0
  142.6540  142.4400   94.0040 C   0  0  1  0  0  3  0  0  0  0  0  0
  142.3010  140.9860   93.6450 C   0  0  2  0  0  3  0  0  0  0  0  0
  141.4190  140.3630   94.7350 C   0  0  1  0  0  3  0  0  0  0  0  0
  141.1340  142.8530   96.7070 C   0  0  0  0  0  2  0  0  0  0  0  0
  141.4360  144.2420   96.6260 O   0  0  0  0  0  0  0  0  0  0  0  0
  140.6700  144.7210   96.9900 H   0  0  0  0  0  0  0  0  0  0  0  0
  141.5340  143.2920   93.8320 O   0  0  0  0  0  0  0  0  0  0  0  0
  141.7740  144.1240   94.2750 H   0  0  0  0  0  0  0  0  0  0  0  0
  143.4940  140.1930   93.4880 O   0  0  0  0  0  0  0  0  0  0  0  0
  143.5130  139.9130   92.5490 H   0  0  0  0  0  0  0  0  0  0  0  0
  141.2230  138.9670   94.4580 O   0  0  0  0  0  0  0  0  0  0  0  0
  141.7340  138.4920   95.1450 H   0  0  0  0  0  0  0  0  0  0  0  0
  2  1  1  6  0  0  0
  2  3  1  0  0  0  0
  3  4  1  0  0  0  0
  4  8  1  6  0  0  0
  5  4  1  0  0  0  0
  5 11  1  1  0  0  0
  6  5  1  0  0  0  0
  6 13  1  1  0  0  0
  7 15  1  6  0  0  0
  7  2  1  0  0  0  0
  7  6  1  0  0  0  0
  8  9  1  0  0  0  0
 10  9  1  0  0  0  0
 12 11  1  0  0  0  0
 13 14  1  0  0  0  0
 16 15  1  0  0  0  0
 17  1  1  6  0  0  0
 17 18  1  0  0  0  0
 18 23  1  6  0  0  0
 19 18  1  0  0  0  0
 20 26  1  1  0  0  0
 20 19  1  0  0  0  0
 21 28  1  1  0  0  0
 21 20  1  0  0  0  0
 21 22  1  0  0  0  0
 22 30  1  6  0  0  0
 22 17  1  0  0  0  0
 24 23  1  0  0  0  0
 24 25  1  0  0  0  0
 26 27  1  0  0  0  0
 29 28  1  0  0  0  0
 30 31  1  0  0  0  0
M  END
>  <MODEL>
2

>  <REMARK>
 VINA RESULT:      -5.0      2.614      4.086
  12 active torsions:
  status: ('A' for Active; 'I' for Inactive)
    1  A    between atoms: O_1  and  C_2 
    2  A    between atoms: C_2  and  C_3 
    3  A    between atoms: C_5  and  O_6 
    4  A    between atoms: O_6  and  C_7 
    5  A    between atoms: C_8  and  C_9 
    6  A    between atoms: C_9  and  O_10 
    7  A    between atoms: C_12  and  O_13 
    8  A    between atoms: C_14  and  O_15 
    9  A    between atoms: C_16  and  O_17 
   10  A    between atoms: C_18  and  O_19 
   11  A    between atoms: C_20  and  O_21 
   12  A    between atoms: C_22  and  O_23 

>  <TORSDO>
F 12

$$$$
../results/processed/lowest_conf/7XP6/docked/s1c.pdbqt
 OpenBabel07252415363D

 31 32  0  0  1  0  0  0  0  0999 V2000
  143.2860  136.6270   97.8170 O   0  0  0  0  0  0  0  0  0  0  0  0
  144.4080  137.5120   97.9830 C   0  0  2  0  0  3  0  0  0  0  0  0
  144.8140  137.5150   99.3520 O   0  0  0  0  0  0  0  0  0  0  0  0
  145.9400  138.3670   99.5780 C   0  0  1  0  0  3  0  0  0  0  0  0
  145.6260  139.8340   99.2160 C   0  0  2  0  0  3  0  0  0  0  0  0
  145.0590  139.9330   97.7920 C   0  0  2  0  0  3  0  0  0  0  0  0
  143.9370  138.9240   97.5700 C   0  0  2  0  0  3  0  0  0  0  0  0
  146.3340  138.2330  101.0560 C   0  0  0  0  0  2  0  0  0  0  0  0
  147.0520  137.0240  101.2920 O   0  0  0  0  0  0  0  0  0  0  0  0
  147.9520  137.2870  101.5580 H   0  0  0  0  0  0  0  0  0  0  0  0
  146.8070  140.6500   99.2720 O   0  0  0  0  0  0  0  0  0  0  0  0
  147.2640  140.5240   98.4100 H   0  0  0  0  0  0  0  0  0  0  0  0
  146.1190  139.7020   96.8520 O   0  0  0  0  0  0  0  0  0  0  0  0
  146.3780  138.7690   97.0090 H   0  0  0  0  0  0  0  0  0  0  0  0
  142.7910  139.3150   98.3510 O   0  0  0  0  0  0  0  0  0  0  0  0
  142.9110  140.2680   98.5300 H   0  0  0  0  0  0  0  0  0  0  0  0
  143.6710  135.3810   97.1760 C   0  0  1  0  0  3  0  0  0  0  0  0
  144.0650  134.3780   98.2780 C   0  0  1  0  0  3  0  0  0  0  0  0
  142.9460  134.0430   99.1210 O   0  0  0  0  0  0  0  0  0  0  0  0
  141.7740  133.5760   98.4610 C   0  0  1  0  0  3  0  0  0  0  0  0
  141.2980  134.5140   97.3380 C   0  0  2  0  0  3  0  0  0  0  0  0
  142.4580  134.8530   96.3940 C   0  0  1  0  0  3  0  0  0  0  0  0
  144.7850  133.1330   97.7370 C   0  0  0  0  0  2  0  0  0  0  0  0
  144.8230  132.1080   98.7250 O   0  0  0  0  0  0  0  0  0  0  0  0
  145.1660  131.3070   98.2900 H   0  0  0  0  0  0  0  0  0  0  0  0
  141.9900  132.2640   97.9700 O   0  0  0  0  0  0  0  0  0  0  0  0
  142.9440  132.2130   97.7850 H   0  0  0  0  0  0  0  0  0  0  0  0
  140.7570  135.7330   97.8830 O   0  0  0  0  0  0  0  0  0  0  0  0
  140.2710  136.1660   97.1490 H   0  0  0  0  0  0  0  0  0  0  0  0
  142.0340  135.8420   95.4420 O   0  0  0  0  0  0  0  0  0  0  0  0
  141.0610  135.7470   95.3860 H   0  0  0  0  0  0  0  0  0  0  0  0
  2  1  1  1  0  0  0
  2  3  1  0  0  0  0
  3  4  1  0  0  0  0
  4  8  1  1  0  0  0
  5 11  1  6  0  0  0
  5  4  1  0  0  0  0
  6 13  1  6  0  0  0
  6  5  1  0  0  0  0
  7  6  1  0  0  0  0
  7  2  1  0  0  0  0
  7 15  1  1  0  0  0
  8  9  1  0  0  0  0
  9 10  1  0  0  0  0
 12 11  1  0  0  0  0
 13 14  1  0  0  0  0
 15 16  1  0  0  0  0
 17  1  1  1  0  0  0
 17 18  1  0  0  0  0
 18 23  1  6  0  0  0
 18 19  1  0  0  0  0
 20 26  1  6  0  0  0
 20 19  1  0  0  0  0
 21 28  1  1  0  0  0
 21 20  1  0  0  0  0
 22 30  1  6  0  0  0
 22 17  1  0  0  0  0
 22 21  1  0  0  0  0
 23 24  1  0  0  0  0
 25 24  1  0  0  0  0
 27 26  1  0  0  0  0
 29 28  1  0  0  0  0
 31 30  1  0  0  0  0
M  END
>  <MODEL>
3

>  <REMARK>
 VINA RESULT:      -5.0      2.908      6.774
  12 active torsions:
  status: ('A' for Active; 'I' for Inactive)
    1  A    between atoms: O_1  and  C_2 
    2  A    between atoms: C_2  and  C_3 
    3  A    between atoms: C_5  and  O_6 
    4  A    between atoms: O_6  and  C_7 
    5  A    between atoms: C_8  and  C_9 
    6  A    between atoms: C_9  and  O_10 
    7  A    between atoms: C_12  and  O_13 
    8  A    between atoms: C_14  and  O_15 
    9  A    between atoms: C_16  and  O_17 
   10  A    between atoms: C_18  and  O_19 
   11  A    between atoms: C_20  and  O_21 
   12  A    between atoms: C_22  and  O_23 

>  <TORSDO>
F 12

$$$$
../results/processed/lowest_conf/7XP6/docked/s1c.pdbqt
 OpenBabel07252415363D

 31 32  0  0  1  0  0  0  0  0999 V2000
  143.2080  137.7410   97.2920 O   0  0  0  0  0  0  0  0  0  0  0  0
  143.6450  136.5000   97.8740 C   0  0  2  0  0  3  0  0  0  0  0  0
  144.5650  135.8570   96.9910 O   0  0  0  0  0  0  0  0  0  0  0  0
  145.0500  134.6220   97.5260 C   0  0  1  0  0  3  0  0  0  0  0  0
  143.9050  133.6170   97.7660 C   0  0  2  0  0  3  0  0  0  0  0  0
  142.7910  134.2530   98.6110 C   0  0  2  0  0  3  0  0  0  0  0  0
  142.3910  135.6190   98.0630 C   0  0  2  0  0  3  0  0  0  0  0  0
  146.0810  134.0620   96.5350 C   0  0  0  0  0  2  0  0  0  0  0  0
  146.9900  133.1750   97.1810 O   0  0  0  0  0  0  0  0  0  0  0  0
  146.4680  132.6750   97.8360 H   0  0  0  0  0  0  0  0  0  0  0  0
  144.3710  132.4520   98.4670 O   0  0  0  0  0  0  0  0  0  0  0  0
  143.7160  132.2870   99.1830 H   0  0  0  0  0  0  0  0  0  0  0  0
  143.2500  134.3840   99.9640 O   0  0  0  0  0  0  0  0  0  0  0  0
  144.2240  134.4750   99.8790 H   0  0  0  0  0  0  0  0  0  0  0  0
  141.7150  135.4410   96.8030 O   0  0  0  0  0  0  0  0  0  0  0  0
  141.8750  136.2640   96.3030 H   0  0  0  0  0  0  0  0  0  0  0  0
  143.1750  138.8160   98.2690 C   0  0  1  0  0  3  0  0  0  0  0  0
  144.3810  139.7380   98.0060 C   0  0  1  0  0  3  0  0  0  0  0  0
  144.2880  140.3870   96.7230 O   0  0  0  0  0  0  0  0  0  0  0  0
  143.0860  141.1030   96.4610 C   0  0  1  0  0  3  0  0  0  0  0  0
  141.8190  140.2630   96.6950 C   0  0  2  0  0  3  0  0  0  0  0  0
  141.8640  139.5950   98.0750 C   0  0  1  0  0  3  0  0  0  0  0  0
  144.6440  140.7320   99.1480 C   0  0  0  0  0  2  0  0  0  0  0  0
  145.5990  141.7100   98.7490 O   0  0  0  0  0  0  0  0  0  0  0  0
  146.4120  141.5370   99.2560 H   0  0  0  0  0  0  0  0  0  0  0  0
  143.0580  142.2920   97.2330 O   0  0  0  0  0  0  0  0  0  0  0  0
  142.1480  142.6270   97.1540 H   0  0  0  0  0  0  0  0  0  0  0  0
  141.6810  139.2490   95.6810 O   0  0  0  0  0  0  0  0  0  0  0  0
  140.8020  139.3920   95.2710 H   0  0  0  0  0  0  0  0  0  0  0  0
  140.7490  138.7000   98.2160 O   0  0  0  0  0  0  0  0  0  0  0  0
  140.0410  139.0790   97.6570 H   0  0  0  0  0  0  0  0  0  0  0  0
  2  1  1  6  0  0  0
  2  7  1  0  0  0  0
  3  4  1  0  0  0  0
  3  2  1  0  0  0  0
  4  8  1  6  0  0  0
  4  5  1  0  0  0  0
  5 11  1  1  0  0  0
  5  6  1  0  0  0  0
  6 13  1  1  0  0  0
  7 15  1  6  0  0  0
  7  6  1  0  0  0  0
  8  9  1  0  0  0  0
  9 10  1  0  0  0  0
 11 12  1  0  0  0  0
 14 13  1  0  0  0  0
 16 15  1  0  0  0  0
 17  1  1  6  0  0  0
 18 17  1  0  0  0  0
 18 23  1  1  0  0  0
 19 18  1  0  0  0  0
 20 21  1  0  0  0  0
 20 19  1  0  0  0  0
 20 26  1  1  0  0  0
 21 28  1  6  0  0  0
 21 22  1  0  0  0  0
 22 30  1  6  0  0  0
 22 17  1  0  0  0  0
 24 23  1  0  0  0  0
 24 25  1  0  0  0  0
 27 26  1  0  0  0  0
 29 28  1  0  0  0  0
 31 30  1  0  0  0  0
M  END
>  <MODEL>
4

>  <REMARK>
 VINA RESULT:      -5.0      2.873      4.642
  12 active torsions:
  status: ('A' for Active; 'I' for Inactive)
    1  A    between atoms: O_1  and  C_2 
    2  A    between atoms: C_2  and  C_3 
    3  A    between atoms: C_5  and  O_6 
    4  A    between atoms: O_6  and  C_7 
    5  A    between atoms: C_8  and  C_9 
    6  A    between atoms: C_9  and  O_10 
    7  A    between atoms: C_12  and  O_13 
    8  A    between atoms: C_14  and  O_15 
    9  A    between atoms: C_16  and  O_17 
   10  A    between atoms: C_18  and  O_19 
   11  A    between atoms: C_20  and  O_21 
   12  A    between atoms: C_22  and  O_23 

>  <TORSDO>
F 12

$$$$
../results/processed/lowest_conf/7XP6/docked/s1c.pdbqt
 OpenBabel07252415363D

 31 32  0  0  1  0  0  0  0  0999 V2000
  143.8690  140.9550   97.5560 O   0  0  0  0  0  0  0  0  0  0  0  0
  144.8100  140.0120   98.1020 C   0  0  2  0  0  3  0  0  0  0  0  0
  144.1530  138.7670   98.3390 O   0  0  0  0  0  0  0  0  0  0  0  0
  145.0450  137.7810   98.8680 C   0  0  1  0  0  3  0  0  0  0  0  0
  145.6430  138.2210  100.2200 C   0  0  2  0  0  3  0  0  0  0  0  0
  146.2730  139.6170  100.1070 C   0  0  2  0  0  3  0  0  0  0  0  0
  145.3220  140.6020   99.4340 C   0  0  2  0  0  3  0  0  0  0  0  0
  144.2540  136.4720   99.0110 C   0  0  0  0  0  2  0  0  0  0  0  0
  145.1250  135.3640   99.2270 O   0  0  0  0  0  0  0  0  0  0  0  0
  146.0220  135.6700   98.9950 H   0  0  0  0  0  0  0  0  0  0  0  0
  146.6690  137.3150  100.6570 O   0  0  0  0  0  0  0  0  0  0  0  0
  147.4480  137.8740  100.8780 H   0  0  0  0  0  0  0  0  0  0  0  0
  147.4910  139.5200   99.3550 O   0  0  0  0  0  0  0  0  0  0  0  0
  147.1910  139.3590   98.4350 H   0  0  0  0  0  0  0  0  0  0  0  0
  144.2160  140.8680  100.3180 O   0  0  0  0  0  0  0  0  0  0  0  0
  143.6710  140.0570  100.3050 H   0  0  0  0  0  0  0  0  0  0  0  0
  144.1880  141.3030   96.1820 C   0  0  1  0  0  3  0  0  0  0  0  0
  143.7710  140.1250   95.2810 C   0  0  1  0  0  3  0  0  0  0  0  0
  142.3450  139.9150   95.3000 O   0  0  0  0  0  0  0  0  0  0  0  0
  141.5350  141.0450   94.9960 C   0  0  1  0  0  3  0  0  0  0  0  0
  141.8760  142.2800   95.8480 C   0  0  2  0  0  3  0  0  0  0  0  0
  143.3840  142.5590   95.8110 C   0  0  1  0  0  3  0  0  0  0  0  0
  144.3290  140.2260   93.8530 C   0  0  0  0  0  2  0  0  0  0  0  0
  143.7400  139.2380   93.0140 O   0  0  0  0  0  0  0  0  0  0  0  0
  144.3500  139.0970   92.2680 H   0  0  0  0  0  0  0  0  0  0  0  0
  141.6250  141.3420   93.6130 O   0  0  0  0  0  0  0  0  0  0  0  0
  142.5000  141.7510   93.4940 H   0  0  0  0  0  0  0  0  0  0  0  0
  141.4620  142.0900   97.2150 O   0  0  0  0  0  0  0  0  0  0  0  0
  142.1970  142.4260   97.7710 H   0  0  0  0  0  0  0  0  0  0  0  0
  143.7020  143.6200   96.7250 O   0  0  0  0  0  0  0  0  0  0  0  0
  144.4400  144.1100   96.3090 H   0  0  0  0  0  0  0  0  0  0  0  0
  2  1  1  1  0  0  0
  2  3  1  0  0  0  0
  2  7  1  0  0  0  0
  3  4  1  0  0  0  0
  4  8  1  1  0  0  0
  4  5  1  0  0  0  0
  5 11  1  6  0  0  0
  6 13  1  6  0  0  0
  6  5  1  0  0  0  0
  7  6  1  0  0  0  0
  7 15  1  1  0  0  0
  8  9  1  0  0  0  0
 10  9  1  0  0  0  0
 11 12  1  0  0  0  0
 14 13  1  0  0  0  0
 16 15  1  0  0  0  0
 17  1  1  1  0  0  0
 18 23  1  6  0  0  0
 18 19  1  0  0  0  0
 18 17  1  0  0  0  0
 20 26  1  6  0  0  0
 20 19  1  0  0  0  0
 20 21  1  0  0  0  0
 21 28  1  1  0  0  0
 22 21  1  0  0  0  0
 22 17  1  0  0  0  0
 22 30  1  1  0  0  0
 24 23  1  0  0  0  0
 25 24  1  0  0  0  0
 27 26  1  0  0  0  0
 28 29  1  0  0  0  0
 31 30  1  0  0  0  0
M  END
>  <MODEL>
5

>  <REMARK>
 VINA RESULT:      -5.0      1.998      2.479
  12 active torsions:
  status: ('A' for Active; 'I' for Inactive)
    1  A    between atoms: O_1  and  C_2 
    2  A    between atoms: C_2  and  C_3 
    3  A    between atoms: C_5  and  O_6 
    4  A    between atoms: O_6  and  C_7 
    5  A    between atoms: C_8  and  C_9 
    6  A    between atoms: C_9  and  O_10 
    7  A    between atoms: C_12  and  O_13 
    8  A    between atoms: C_14  and  O_15 
    9  A    between atoms: C_16  and  O_17 
   10  A    between atoms: C_18  and  O_19 
   11  A    between atoms: C_20  and  O_21 
   12  A    between atoms: C_22  and  O_23 

>  <TORSDO>
F 12

$$$$
../results/processed/lowest_conf/7XP6/docked/s1c.pdbqt
 OpenBabel07252415363D

 31 32  0  0  1  0  0  0  0  0999 V2000
  143.4760  139.4570   96.2680 O   0  0  0  0  0  0  0  0  0  0  0  0
  143.1210  140.6850   95.6070 C   0  0  2  0  0  3  0  0  0  0  0  0
  142.1830  141.4040   96.4080 O   0  0  0  0  0  0  0  0  0  0  0  0
  141.8040  142.6460   95.8080 C   0  0  1  0  0  3  0  0  0  0  0  0
  141.1290  142.4330   94.4370 C   0  0  2  0  0  3  0  0  0  0  0  0
  142.0060  141.5580   93.5300 C   0  0  2  0  0  3  0  0  0  0  0  0
  142.4770  140.3020   94.2560 C   0  0  2  0  0  3  0  0  0  0  0  0
  140.8610  143.3630   96.7850 C   0  0  0  0  0  2  0  0  0  0  0  0
  140.7970  144.7600   96.5100 O   0  0  0  0  0  0  0  0  0  0  0  0
  140.3780  145.1740   97.2870 H   0  0  0  0  0  0  0  0  0  0  0  0
  140.9150  143.6820   93.7610 O   0  0  0  0  0  0  0  0  0  0  0  0
  141.2330  143.5500   92.8390 H   0  0  0  0  0  0  0  0  0  0  0  0
  143.1380  142.3250   93.0950 O   0  0  0  0  0  0  0  0  0  0  0  0
  143.3780  142.8630   93.8800 H   0  0  0  0  0  0  0  0  0  0  0  0
  141.3480  139.4330   94.4720 O   0  0  0  0  0  0  0  0  0  0  0  0
  141.3880  138.7710   93.7550 H   0  0  0  0  0  0  0  0  0  0  0  0
  144.7430  139.5690   96.9710 C   0  0  1  0  0  3  0  0  0  0  0  0
  144.4540  139.5600   98.4840 C   0  0  1  0  0  3  0  0  0  0  0  0
  143.8900  138.3050   98.9130 O   0  0  0  0  0  0  0  0  0  0  0  0
  144.6200  137.1320   98.5700 C   0  0  1  0  0  3  0  0  0  0  0  0
  144.9590  137.0480   97.0710 C   0  0  2  0  0  3  0  0  0  0  0  0
  145.6050  138.3540   96.5920 C   0  0  1  0  0  3  0  0  0  0  0  0
  145.6620  139.9810   99.3350 C   0  0  0  0  0  2  0  0  0  0  0  0
  145.4100  139.7400  100.7160 O   0  0  0  0  0  0  0  0  0  0  0  0
  144.8280  138.9610  100.7660 H   0  0  0  0  0  0  0  0  0  0  0  0
  145.7920  137.0480   99.3620 O   0  0  0  0  0  0  0  0  0  0  0  0
  145.6150  136.3440  100.0100 H   0  0  0  0  0  0  0  0  0  0  0  0
  143.7740  136.7910   96.2910 O   0  0  0  0  0  0  0  0  0  0  0  0
  143.0150  137.0220   96.8660 H   0  0  0  0  0  0  0  0  0  0  0  0
  145.7780  138.3130   95.1670 O   0  0  0  0  0  0  0  0  0  0  0  0
  146.3040  139.1090   94.9460 H   0  0  0  0  0  0  0  0  0  0  0  0
  2  1  1  1  0  0  0
  2  3  1  0  0  0  0
  4  3  1  0  0  0  0
  4  8  1  1  0  0  0
  5 11  1  6  0  0  0
  5  4  1  0  0  0  0
  6 13  1  1  0  0  0
  6  7  1  0  0  0  0
  6  5  1  0  0  0  0
  7 15  1  1  0  0  0
  7  2  1  0  0  0  0
  9  8  1  0  0  0  0
  9 10  1  0  0  0  0
 12 11  1  0  0  0  0
 13 14  1  0  0  0  0
 16 15  1  0  0  0  0
 17  1  1  6  0  0  0
 17 18  1  0  0  0  0
 18 19  1  0  0  0  0
 18 23  1  1  0  0  0
 20 19  1  0  0  0  0
 20 26  1  1  0  0  0
 21 28  1  6  0  0  0
 21 20  1  0  0  0  0
 22 30  1  6  0  0  0
 22 17  1  0  0  0  0
 22 21  1  0  0  0  0
 23 24  1  0  0  0  0
 24 25  1  0  0  0  0
 26 27  1  0  0  0  0
 28 29  1  0  0  0  0
 31 30  1  0  0  0  0
M  END
>  <MODEL>
6

>  <REMARK>
 VINA RESULT:      -4.9      2.423      6.662
  12 active torsions:
  status: ('A' for Active; 'I' for Inactive)
    1  A    between atoms: O_1  and  C_2 
    2  A    between atoms: C_2  and  C_3 
    3  A    between atoms: C_5  and  O_6 
    4  A    between atoms: O_6  and  C_7 
    5  A    between atoms: C_8  and  C_9 
    6  A    between atoms: C_9  and  O_10 
    7  A    between atoms: C_12  and  O_13 
    8  A    between atoms: C_14  and  O_15 
    9  A    between atoms: C_16  and  O_17 
   10  A    between atoms: C_18  and  O_19 
   11  A    between atoms: C_20  and  O_21 
   12  A    between atoms: C_22  and  O_23 

>  <TORSDO>
F 12

$$$$
../results/processed/lowest_conf/7XP6/docked/s1c.pdbqt
 OpenBabel07252415363D

 31 32  0  0  1  0  0  0  0  0999 V2000
  131.6340  128.8120   92.4170 O   0  0  0  0  0  0  0  0  0  0  0  0
  130.9680  129.6280   91.4370 C   0  0  2  0  0  3  0  0  0  0  0  0
  130.2520  130.6740   92.0950 O   0  0  0  0  0  0  0  0  0  0  0  0
  129.5810  131.5310   91.1680 C   0  0  1  0  0  3  0  0  0  0  0  0
  128.5430  130.7590   90.3270 C   0  0  2  0  0  3  0  0  0  0  0  0
  129.1850  129.5300   89.6670 C   0  0  2  0  0  3  0  0  0  0  0  0
  129.9840  128.7120   90.6770 C   0  0  2  0  0  3  0  0  0  0  0  0
  128.9140  132.6540   91.9760 C   0  0  0  0  0  2  0  0  0  0  0  0
  128.8170  133.8540   91.2110 O   0  0  0  0  0  0  0  0  0  0  0  0
  128.3490  134.5000   91.7720 H   0  0  0  0  0  0  0  0  0  0  0  0
  128.0030  131.5820   89.2790 O   0  0  0  0  0  0  0  0  0  0  0  0
  127.0400  131.3830   89.2480 H   0  0  0  0  0  0  0  0  0  0  0  0
  130.0430  129.9660   88.6030 O   0  0  0  0  0  0  0  0  0  0  0  0
  130.8640  129.4420   88.7270 H   0  0  0  0  0  0  0  0  0  0  0  0
  129.0720  128.0860   91.6020 O   0  0  0  0  0  0  0  0  0  0  0  0
  128.4460  128.7880   91.8650 H   0  0  0  0  0  0  0  0  0  0  0  0
  133.0710  129.0330   92.4180 C   0  0  1  0  0  3  0  0  0  0  0  0
  133.3690  130.2340   93.3350 C   0  0  1  0  0  3  0  0  0  0  0  0
  133.0250  129.9590   94.7070 O   0  0  0  0  0  0  0  0  0  0  0  0
  133.5900  128.7830   95.2780 C   0  0  1  0  0  3  0  0  0  0  0  0
  133.3450  127.5220   94.4310 C   0  0  2  0  0  3  0  0  0  0  0  0
  133.7460  127.7680   92.9720 C   0  0  1  0  0  3  0  0  0  0  0  0
  134.8020  130.7700   93.1870 C   0  0  0  0  0  2  0  0  0  0  0  0
  134.8830  132.1160   93.6450 O   0  0  0  0  0  0  0  0  0  0  0  0
  135.2070  132.6500   92.8990 H   0  0  0  0  0  0  0  0  0  0  0  0
  134.9750  128.9800   95.5070 O   0  0  0  0  0  0  0  0  0  0  0  0
  135.2360  129.6990   94.9050 H   0  0  0  0  0  0  0  0  0  0  0  0
  131.9580  127.1310   94.4840 O   0  0  0  0  0  0  0  0  0  0  0  0
  131.9480  126.1540   94.4010 H   0  0  0  0  0  0  0  0  0  0  0  0
  133.3730  126.6350   92.1700 O   0  0  0  0  0  0  0  0  0  0  0  0
  133.3430  125.8780   92.7900 H   0  0  0  0  0  0  0  0  0  0  0  0
  2  3  1  0  0  0  0
  2  1  1  1  0  0  0
  4  8  1  1  0  0  0
  4  3  1  0  0  0  0
  5 11  1  6  0  0  0
  5  4  1  0  0  0  0
  6 13  1  6  0  0  0
  6  5  1  0  0  0  0
  6  7  1  0  0  0  0
  7  2  1  0  0  0  0
  7 15  1  1  0  0  0
  9 10  1  0  0  0  0
  9  8  1  0  0  0  0
 12 11  1  0  0  0  0
 13 14  1  0  0  0  0
 15 16  1  0  0  0  0
 17  1  1  1  0  0  0
 17 22  1  0  0  0  0
 17 18  1  0  0  0  0
 18 23  1  1  0  0  0
 18 19  1  0  0  0  0
 19 20  1  0  0  0  0
 20 26  1  6  0  0  0
 21 28  1  6  0  0  0
 21 20  1  0  0  0  0
 22 30  1  6  0  0  0
 22 21  1  0  0  0  0
 23 24  1  0  0  0  0
 25 24  1  0  0  0  0
 27 26  1  0  0  0  0
 29 28  1  0  0  0  0
 30 31  1  0  0  0  0
M  END
>  <MODEL>
7

>  <REMARK>
 VINA RESULT:      -4.9     16.156     19.164
  12 active torsions:
  status: ('A' for Active; 'I' for Inactive)
    1  A    between atoms: O_1  and  C_2 
    2  A    between atoms: C_2  and  C_3 
    3  A    between atoms: C_5  and  O_6 
    4  A    between atoms: O_6  and  C_7 
    5  A    between atoms: C_8  and  C_9 
    6  A    between atoms: C_9  and  O_10 
    7  A    between atoms: C_12  and  O_13 
    8  A    between atoms: C_14  and  O_15 
    9  A    between atoms: C_16  and  O_17 
   10  A    between atoms: C_18  and  O_19 
   11  A    between atoms: C_20  and  O_21 
   12  A    between atoms: C_22  and  O_23 

>  <TORSDO>
F 12

$$$$
../results/processed/lowest_conf/7XP6/docked/s1c.pdbqt
 OpenBabel07252415363D

 31 32  0  0  1  0  0  0  0  0999 V2000
  131.6540  128.4030   92.4360 O   0  0  0  0  0  0  0  0  0  0  0  0
  130.7860  129.5510   92.4270 C   0  0  2  0  0  3  0  0  0  0  0  0
  129.5290  129.2020   93.0090 O   0  0  0  0  0  0  0  0  0  0  0  0
  128.6270  130.3120   93.0430 C   0  0  1  0  0  3  0  0  0  0  0  0
  128.3170  130.8380   91.6260 C   0  0  2  0  0  3  0  0  0  0  0  0
  129.6150  131.1300   90.8590 C   0  0  2  0  0  3  0  0  0  0  0  0
  130.5890  129.9590   90.9510 C   0  0  2  0  0  3  0  0  0  0  0  0
  127.3470  129.8450   93.7530 C   0  0  0  0  0  2  0  0  0  0  0  0
  126.2790  129.6630   92.8270 O   0  0  0  0  0  0  0  0  0  0  0  0
  125.6760  129.0090   93.2270 H   0  0  0  0  0  0  0  0  0  0  0  0
  127.5580  132.0570   91.6760 O   0  0  0  0  0  0  0  0  0  0  0  0
  128.2160  132.7870   91.6340 H   0  0  0  0  0  0  0  0  0  0  0  0
  130.2210  132.3130   91.4010 O   0  0  0  0  0  0  0  0  0  0  0  0
  129.6150  133.0360   91.1300 H   0  0  0  0  0  0  0  0  0  0  0  0
  130.0630  128.8500   90.1940 O   0  0  0  0  0  0  0  0  0  0  0  0
  130.8440  128.3920   89.8280 H   0  0  0  0  0  0  0  0  0  0  0  0
  133.0560  128.7850   92.4250 C   0  0  1  0  0  3  0  0  0  0  0  0
  133.2260  130.0050   93.3510 C   0  0  1  0  0  3  0  0  0  0  0  0
  132.9310  129.6790   94.7240 O   0  0  0  0  0  0  0  0  0  0  0  0
  133.6320  128.5700   95.2770 C   0  0  1  0  0  3  0  0  0  0  0  0
  133.5220  127.2970   94.4200 C   0  0  2  0  0  3  0  0  0  0  0  0
  133.8760  127.6000   92.9590 C   0  0  1  0  0  3  0  0  0  0  0  0
  134.5880  130.7000   93.1940 C   0  0  0  0  0  2  0  0  0  0  0  0
  134.7700  131.6800   94.2120 O   0  0  0  0  0  0  0  0  0  0  0  0
  134.6330  132.5490   93.7960 H   0  0  0  0  0  0  0  0  0  0  0  0
  134.9890  128.9200   95.4940 O   0  0  0  0  0  0  0  0  0  0  0  0
  135.4190  128.1030   95.8000 H   0  0  0  0  0  0  0  0  0  0  0  0
  132.1890  126.7510   94.4820 O   0  0  0  0  0  0  0  0  0  0  0  0
  132.2930  125.8110   94.7390 H   0  0  0  0  0  0  0  0  0  0  0  0
  133.6250  126.4400   92.1500 O   0  0  0  0  0  0  0  0  0  0  0  0
  134.4630  126.2680   91.6740 H   0  0  0  0  0  0  0  0  0  0  0  0
  2  1  1  6  0  0  0
  2  3  1  0  0  0  0
  3  4  1  0  0  0  0
  4  8  1  6  0  0  0
  5 11  1  1  0  0  0
  5  4  1  0  0  0  0
  6  7  1  0  0  0  0
  6 13  1  1  0  0  0
  6  5  1  0  0  0  0
  7 15  1  6  0  0  0
  7  2  1  0  0  0  0
  9 10  1  0  0  0  0
  9  8  1  0  0  0  0
 12 11  1  0  0  0  0
 14 13  1  0  0  0  0
 16 15  1  0  0  0  0
 17  1  1  1  0  0  0
 17 22  1  0  0  0  0
 17 18  1  0  0  0  0
 18 23  1  1  0  0  0
 18 19  1  0  0  0  0
 19 20  1  0  0  0  0
 20 26  1  6  0  0  0
 21 28  1  6  0  0  0
 21 20  1  0  0  0  0
 22 30  1  6  0  0  0
 22 21  1  0  0  0  0
 23 24  1  0  0  0  0
 25 24  1  0  0  0  0
 26 27  1  0  0  0  0
 28 29  1  0  0  0  0
 31 30  1  0  0  0  0
M  END
>  <MODEL>
8

>  <REMARK>
 VINA RESULT:      -4.7     16.231     19.151
  12 active torsions:
  status: ('A' for Active; 'I' for Inactive)
    1  A    between atoms: O_1  and  C_2 
    2  A    between atoms: C_2  and  C_3 
    3  A    between atoms: C_5  and  O_6 
    4  A    between atoms: O_6  and  C_7 
    5  A    between atoms: C_8  and  C_9 
    6  A    between atoms: C_9  and  O_10 
    7  A    between atoms: C_12  and  O_13 
    8  A    between atoms: C_14  and  O_15 
    9  A    between atoms: C_16  and  O_17 
   10  A    between atoms: C_18  and  O_19 
   11  A    between atoms: C_20  and  O_21 
   12  A    between atoms: C_22  and  O_23 

>  <TORSDO>
F 12

$$$$
../results/processed/lowest_conf/7XP6/docked/s1c.pdbqt
 OpenBabel07252415363D

 31 32  0  0  1  0  0  0  0  0999 V2000
  143.6590  138.4350   97.6690 O   0  0  0  0  0  0  0  0  0  0  0  0
  142.5930  137.4970   97.9030 C   0  0  2  0  0  3  0  0  0  0  0  0
  143.1420  136.2490   98.3300 O   0  0  0  0  0  0  0  0  0  0  0  0
  142.1260  135.2780   98.5960 C   0  0  1  0  0  3  0  0  0  0  0  0
  141.2850  134.9750   97.3380 C   0  0  2  0  0  3  0  0  0  0  0  0
  140.7440  136.2720   96.7200 C   0  0  2  0  0  3  0  0  0  0  0  0
  141.8470  137.3140   96.5640 C   0  0  2  0  0  3  0  0  0  0  0  0
  142.8210  134.0120   99.1170 C   0  0  0  0  0  2  0  0  0  0  0  0
  142.9440  133.0300   98.0910 O   0  0  0  0  0  0  0  0  0  0  0  0
  142.0490  132.9000   97.7260 H   0  0  0  0  0  0  0  0  0  0  0  0
  140.1590  134.1390   97.6510 O   0  0  0  0  0  0  0  0  0  0  0  0
  139.7880  133.8490   96.7870 H   0  0  0  0  0  0  0  0  0  0  0  0
  139.6990  136.7870   97.5570 O   0  0  0  0  0  0  0  0  0  0  0  0
  139.9380  136.4750   98.4570 H   0  0  0  0  0  0  0  0  0  0  0  0
  142.7630  136.8800   95.5390 O   0  0  0  0  0  0  0  0  0  0  0  0
  143.6360  137.2260   95.8070 H   0  0  0  0  0  0  0  0  0  0  0  0
  144.2720  138.8770   98.9100 C   0  0  1  0  0  3  0  0  0  0  0  0
  145.7660  138.5010   98.8660 C   0  0  1  0  0  3  0  0  0  0  0  0
  146.4650  139.2080   97.8230 O   0  0  0  0  0  0  0  0  0  0  0  0
  146.3390  140.6260   97.8250 C   0  0  1  0  0  3  0  0  0  0  0  0
  144.8770  141.1040   97.8680 C   0  0  2  0  0  3  0  0  0  0  0  0
  144.1160  140.4030   99.0000 C   0  0  1  0  0  3  0  0  0  0  0  0
  146.4640  138.6290  100.2290 C   0  0  0  0  0  2  0  0  0  0  0  0
  146.5440  137.3600  100.8710 O   0  0  0  0  0  0  0  0  0  0  0  0
  145.8210  136.8150  100.5130 H   0  0  0  0  0  0  0  0  0  0  0  0
  147.0840  141.1720   98.9000 O   0  0  0  0  0  0  0  0  0  0  0  0
  147.4600  140.4060   99.3670 H   0  0  0  0  0  0  0  0  0  0  0  0
  144.2140  140.8390   96.6150 O   0  0  0  0  0  0  0  0  0  0  0  0
  143.4720  140.2330   96.8240 H   0  0  0  0  0  0  0  0  0  0  0  0
  142.7230  140.7480   98.9320 O   0  0  0  0  0  0  0  0  0  0  0  0
  142.3420  140.4600   99.7860 H   0  0  0  0  0  0  0  0  0  0  0  0
  2  1  1  6  0  0  0
  2  3  1  0  0  0  0
  3  4  1  0  0  0  0
  4  8  1  6  0  0  0
  5 11  1  1  0  0  0
  5  4  1  0  0  0  0
  6  5  1  0  0  0  0
  6 13  1  1  0  0  0
  7 15  1  6  0  0  0
  7  6  1  0  0  0  0
  7  2  1  0  0  0  0
  9  8  1  0  0  0  0
 10  9  1  0  0  0  0
 12 11  1  0  0  0  0
 13 14  1  0  0  0  0
 15 16  1  0  0  0  0
 17  1  1  6  0  0  0
 17 22  1  0  0  0  0
 18 17  1  0  0  0  0
 18 23  1  1  0  0  0
 19 20  1  0  0  0  0
 19 18  1  0  0  0  0
 20 21  1  0  0  0  0
 20 26  1  1  0  0  0
 21 28  1  6  0  0  0
 21 22  1  0  0  0  0
 22 30  1  6  0  0  0
 23 24  1  0  0  0  0
 25 24  1  0  0  0  0
 26 27  1  0  0  0  0
 28 29  1  0  0  0  0
 30 31  1  0  0  0  0
M  END
>  <MODEL>
9

>  <REMARK>
 VINA RESULT:      -4.7      2.690      5.125
  12 active torsions:
  status: ('A' for Active; 'I' for Inactive)
    1  A    between atoms: O_1  and  C_2 
    2  A    between atoms: C_2  and  C_3 
    3  A    between atoms: C_5  and  O_6 
    4  A    between atoms: O_6  and  C_7 
    5  A    between atoms: C_8  and  C_9 
    6  A    between atoms: C_9  and  O_10 
    7  A    between atoms: C_12  and  O_13 
    8  A    between atoms: C_14  and  O_15 
    9  A    between atoms: C_16  and  O_17 
   10  A    between atoms: C_18  and  O_19 
   11  A    between atoms: C_20  and  O_21 
   12  A    between atoms: C_22  and  O_23 

>  <TORSDO>
F 12

$$$$
