MODEL 1
REMARK VINA RESULT:      -3.4      0.000      0.000
REMARK  6 active torsions:
REMARK  status: ('A' for Active; 'I' for Inactive)
REMARK    1  A    between atoms: C_2  and  C_3 
REMARK    2  A    between atoms: C_2  and  O_5 
REMARK    3  A    between atoms: C_3  and  O_4 
REMARK    4  A    between atoms: O_5  and  C_6 
REMARK    5  A    between atoms: C_6  and  C_7 
REMARK    6  A    between atoms: C_7  and  O_8 
ROOT
ATOM      1  C   UNL d   1     145.390 140.157  99.908  0.00  0.00     0.042 C 
ATOM      2  C   UNL d   1     146.305 138.935  99.960  0.00  0.00     0.141 C 
ENDROOT
BRANCH   2   3
ATOM      3  C   UNL d   1     146.204 138.229 101.320  0.00  0.00     0.195 C 
BRANCH   3   4
ATOM      4  O   UNL d   1     146.985 137.034 101.328  0.00  0.00    -0.398 OA
ATOM      5  H   UNL d   1     147.907 137.329 101.198  0.00  0.00     0.209 HD
ENDBRANCH   3   4
ENDBRANCH   2   3
BRANCH   2   6
ATOM      6  O   UNL d   1     145.918 137.970  98.964  0.00  0.00    -0.382 OA
BRANCH   6   7
ATOM      7  C   UNL d   1     144.496 137.846  98.817  0.00  0.00     0.194 C 
BRANCH   7   8
ATOM      8  C   UNL d   1     144.147 136.361  98.866  0.00  0.00     0.190 C 
BRANCH   8   9
ATOM      9  O   UNL d   1     145.290 135.610  99.269  0.00  0.00    -0.399 OA
ATOM     10  H   UNL d   1     145.982 135.820  98.613  0.00  0.00     0.209 HD
ENDBRANCH   8   9
ENDBRANCH   7   8
ENDBRANCH   6   7
ENDBRANCH   2   6
TORSDOF 6
ENDMDL
MODEL 2
REMARK VINA RESULT:      -3.1      4.352      6.587
REMARK  6 active torsions:
REMARK  status: ('A' for Active; 'I' for Inactive)
REMARK    1  A    between atoms: C_2  and  C_3 
REMARK    2  A    between atoms: C_2  and  O_5 
REMARK    3  A    between atoms: C_3  and  O_4 
REMARK    4  A    between atoms: O_5  and  C_6 
REMARK    5  A    between atoms: C_6  and  C_7 
REMARK    6  A    between atoms: C_7  and  O_8 
ROOT
ATOM      1  C   UNL d   1     141.269 131.633  98.362  0.00  0.00     0.042 C 
ATOM      2  C   UNL d   1     142.099 131.801  99.633  0.00  0.00     0.141 C 
ENDROOT
BRANCH   2   3
ATOM      3  C   UNL d   1     143.347 130.907  99.598  0.00  0.00     0.195 C 
BRANCH   3   4
ATOM      4  O   UNL d   1     143.378 130.040 100.732  0.00  0.00    -0.398 OA
ATOM      5  H   UNL d   1     142.464 129.708 100.827  0.00  0.00     0.209 HD
ENDBRANCH   3   4
ENDBRANCH   2   3
BRANCH   2   6
ATOM      6  O   UNL d   1     142.566 133.156  99.757  0.00  0.00    -0.382 OA
BRANCH   6   7
ATOM      7  C   UNL d   1     142.352 133.940  98.574  0.00  0.00     0.194 C 
BRANCH   7   8
ATOM      8  C   UNL d   1     142.773 135.375  98.878  0.00  0.00     0.190 C 
BRANCH   8   9
ATOM      9  O   UNL d   1     144.069 135.381  99.475  0.00  0.00    -0.399 OA
ATOM     10  H   UNL d   1     144.487 134.545  99.194  0.00  0.00     0.209 HD
ENDBRANCH   8   9
ENDBRANCH   7   8
ENDBRANCH   6   7
ENDBRANCH   2   6
TORSDOF 6
ENDMDL
MODEL 3
REMARK VINA RESULT:      -3.1     14.124     16.051
REMARK  6 active torsions:
REMARK  status: ('A' for Active; 'I' for Inactive)
REMARK    1  A    between atoms: C_2  and  C_3 
REMARK    2  A    between atoms: C_2  and  O_5 
REMARK    3  A    between atoms: C_3  and  O_4 
REMARK    4  A    between atoms: O_5  and  C_6 
REMARK    5  A    between atoms: C_6  and  C_7 
REMARK    6  A    between atoms: C_7  and  O_8 
ROOT
ATOM      1  C   UNL d   1     133.993 129.449  92.633  0.00  0.00     0.042 C 
ATOM      2  C   UNL d   1     133.059 128.671  93.558  0.00  0.00     0.141 C 
ENDROOT
BRANCH   2   3
ATOM      3  C   UNL d   1     133.541 127.224  93.737  0.00  0.00     0.195 C 
BRANCH   3   4
ATOM      4  O   UNL d   1     132.640 126.490  94.566  0.00  0.00    -0.398 OA
ATOM      5  H   UNL d   1     133.130 125.685  94.827  0.00  0.00     0.209 HD
ENDBRANCH   3   4
ENDBRANCH   2   3
BRANCH   2   6
ATOM      6  O   UNL d   1     133.036 129.263  94.869  0.00  0.00    -0.382 OA
BRANCH   6   7
ATOM      7  C   UNL d   1     134.205 130.043  95.159  0.00  0.00     0.194 C 
BRANCH   7   8
ATOM      8  C   UNL d   1     134.400 130.053  96.672  0.00  0.00     0.190 C 
BRANCH   8   9
ATOM      9  O   UNL d   1     133.580 131.062  97.258  0.00  0.00    -0.399 OA
ATOM     10  H   UNL d   1     134.202 131.719  97.626  0.00  0.00     0.209 HD
ENDBRANCH   8   9
ENDBRANCH   7   8
ENDBRANCH   6   7
ENDBRANCH   2   6
TORSDOF 6
ENDMDL
MODEL 4
REMARK VINA RESULT:      -3.0      0.865      3.124
REMARK  6 active torsions:
REMARK  status: ('A' for Active; 'I' for Inactive)
REMARK    1  A    between atoms: C_2  and  C_3 
REMARK    2  A    between atoms: C_2  and  O_5 
REMARK    3  A    between atoms: C_3  and  O_4 
REMARK    4  A    between atoms: O_5  and  C_6 
REMARK    5  A    between atoms: C_6  and  C_7 
REMARK    6  A    between atoms: C_7  and  O_8 
ROOT
ATOM      1  C   UNL d   1     143.461 137.859  97.325  0.00  0.00     0.042 C 
ATOM      2  C   UNL d   1     144.085 137.368  98.630  0.00  0.00     0.141 C 
ENDROOT
BRANCH   2   3
ATOM      3  C   UNL d   1     144.030 135.836  98.724  0.00  0.00     0.195 C 
BRANCH   3   4
ATOM      4  O   UNL d   1     145.262 135.317  99.226  0.00  0.00    -0.398 OA
ATOM      5  H   UNL d   1     145.360 135.706 100.118  0.00  0.00     0.209 HD
ENDBRANCH   3   4
ENDBRANCH   2   3
BRANCH   2   6
ATOM      6  O   UNL d   1     145.474 137.736  98.698  0.00  0.00    -0.382 OA
BRANCH   6   7
ATOM      7  C   UNL d   1     145.732 138.805  99.621  0.00  0.00     0.194 C 
BRANCH   7   8
ATOM      8  C   UNL d   1     146.951 138.420 100.455  0.00  0.00     0.190 C 
BRANCH   8   9
ATOM      9  O   UNL d   1     146.734 137.151 101.068  0.00  0.00    -0.399 OA
ATOM     10  H   UNL d   1     147.300 137.147 101.864  0.00  0.00     0.209 HD
ENDBRANCH   8   9
ENDBRANCH   7   8
ENDBRANCH   6   7
ENDBRANCH   2   6
TORSDOF 6
ENDMDL
MODEL 5
REMARK VINA RESULT:      -3.0      4.046      5.701
REMARK  6 active torsions:
REMARK  status: ('A' for Active; 'I' for Inactive)
REMARK    1  A    between atoms: C_2  and  C_3 
REMARK    2  A    between atoms: C_2  and  O_5 
REMARK    3  A    between atoms: C_3  and  O_4 
REMARK    4  A    between atoms: O_5  and  C_6 
REMARK    5  A    between atoms: C_6  and  C_7 
REMARK    6  A    between atoms: C_7  and  O_8 
ROOT
ATOM      1  C   UNL d   1     142.494 134.528  98.978  0.00  0.00     0.042 C 
ATOM      2  C   UNL d   1     143.392 133.782  97.993  0.00  0.00     0.141 C 
ENDROOT
BRANCH   2   3
ATOM      3  C   UNL d   1     144.771 134.449  97.891  0.00  0.00     0.195 C 
BRANCH   3   4
ATOM      4  O   UNL d   1     145.131 135.058  99.130  0.00  0.00    -0.398 OA
ATOM      5  H   UNL d   1     145.760 134.437  99.548  0.00  0.00     0.209 HD
ENDBRANCH   3   4
ENDBRANCH   2   3
BRANCH   2   6
ATOM      6  O   UNL d   1     143.619 132.432  98.437  0.00  0.00    -0.382 OA
BRANCH   6   7
ATOM      7  C   UNL d   1     142.745 132.031  99.502  0.00  0.00     0.194 C 
BRANCH   7   8
ATOM      8  C   UNL d   1     143.213 130.668 100.005  0.00  0.00     0.190 C 
BRANCH   8   9
ATOM      9  O   UNL d   1     143.461 130.732 101.408  0.00  0.00    -0.399 OA
ATOM     10  H   UNL d   1     144.379 131.054 101.495  0.00  0.00     0.209 HD
ENDBRANCH   8   9
ENDBRANCH   7   8
ENDBRANCH   6   7
ENDBRANCH   2   6
TORSDOF 6
ENDMDL
MODEL 6
REMARK VINA RESULT:      -3.0     10.915     11.544
REMARK  6 active torsions:
REMARK  status: ('A' for Active; 'I' for Inactive)
REMARK    1  A    between atoms: C_2  and  C_3 
REMARK    2  A    between atoms: C_2  and  O_5 
REMARK    3  A    between atoms: C_3  and  O_4 
REMARK    4  A    between atoms: O_5  and  C_6 
REMARK    5  A    between atoms: C_6  and  C_7 
REMARK    6  A    between atoms: C_7  and  O_8 
ROOT
ATOM      1  C   UNL d   1     152.670 128.464 103.989  0.00  0.00     0.042 C 
ATOM      2  C   UNL d   1     152.251 129.011 102.626  0.00  0.00     0.141 C 
ENDROOT
BRANCH   2   3
ATOM      3  C   UNL d   1     153.251 128.599 101.536  0.00  0.00     0.195 C 
BRANCH   3   4
ATOM      4  O   UNL d   1     153.789 129.748 100.883  0.00  0.00    -0.398 OA
ATOM      5  H   UNL d   1     153.014 130.294 100.645  0.00  0.00     0.209 HD
ENDBRANCH   3   4
ENDBRANCH   2   3
BRANCH   2   6
ATOM      6  O   UNL d   1     150.973 128.477 102.237  0.00  0.00    -0.382 OA
BRANCH   6   7
ATOM      7  C   UNL d   1     150.491 127.457 103.123  0.00  0.00     0.194 C 
BRANCH   7   8
ATOM      8  C   UNL d   1     148.966 127.514 103.120  0.00  0.00     0.190 C 
BRANCH   8   9
ATOM      9  O   UNL d   1     148.532 128.786 102.643  0.00  0.00    -0.399 OA
ATOM     10  H   UNL d   1     147.908 128.591 101.917  0.00  0.00     0.209 HD
ENDBRANCH   8   9
ENDBRANCH   7   8
ENDBRANCH   6   7
ENDBRANCH   2   6
TORSDOF 6
ENDMDL
MODEL 7
REMARK VINA RESULT:      -3.0     13.950     14.924
REMARK  6 active torsions:
REMARK  status: ('A' for Active; 'I' for Inactive)
REMARK    1  A    between atoms: C_2  and  C_3 
REMARK    2  A    between atoms: C_2  and  O_5 
REMARK    3  A    between atoms: C_3  and  O_4 
REMARK    4  A    between atoms: O_5  and  C_6 
REMARK    5  A    between atoms: C_6  and  C_7 
REMARK    6  A    between atoms: C_7  and  O_8 
ROOT
ATOM      1  C   UNL d   1     134.038 128.113  93.699  0.00  0.00     0.042 C 
ATOM      2  C   UNL d   1     134.359 129.430  94.402  0.00  0.00     0.141 C 
ENDROOT
BRANCH   2   3
ATOM      3  C   UNL d   1     133.902 130.629  93.558  0.00  0.00     0.195 C 
BRANCH   3   4
ATOM      4  O   UNL d   1     134.734 131.764  93.802  0.00  0.00    -0.398 OA
ATOM      5  H   UNL d   1     135.497 131.419  94.306  0.00  0.00     0.209 HD
ENDBRANCH   3   4
ENDBRANCH   2   3
BRANCH   2   6
ATOM      6  O   UNL d   1     133.660 129.518  95.656  0.00  0.00    -0.382 OA
BRANCH   6   7
ATOM      7  C   UNL d   1     134.503 129.919  96.747  0.00  0.00     0.194 C 
BRANCH   7   8
ATOM      8  C   UNL d   1     133.606 130.251  97.936  0.00  0.00     0.190 C 
BRANCH   8   9
ATOM      9  O   UNL d   1     133.639 131.655  98.187  0.00  0.00    -0.399 OA
ATOM     10  H   UNL d   1     132.708 131.915  98.326  0.00  0.00     0.209 HD
ENDBRANCH   8   9
ENDBRANCH   7   8
ENDBRANCH   6   7
ENDBRANCH   2   6
TORSDOF 6
ENDMDL
MODEL 8
REMARK VINA RESULT:      -2.9     14.703     16.282
REMARK  6 active torsions:
REMARK  status: ('A' for Active; 'I' for Inactive)
REMARK    1  A    between atoms: C_2  and  C_3 
REMARK    2  A    between atoms: C_2  and  O_5 
REMARK    3  A    between atoms: C_3  and  O_4 
REMARK    4  A    between atoms: O_5  and  C_6 
REMARK    5  A    between atoms: C_6  and  C_7 
REMARK    6  A    between atoms: C_7  and  O_8 
ROOT
ATOM      1  C   UNL d   1     134.083 127.367  92.564  0.00  0.00     0.042 C 
ATOM      2  C   UNL d   1     133.502 128.397  93.530  0.00  0.00     0.141 C 
ENDROOT
BRANCH   2   3
ATOM      3  C   UNL d   1     132.671 127.715  94.627  0.00  0.00     0.195 C 
BRANCH   3   4
ATOM      4  O   UNL d   1     132.650 126.300  94.440  0.00  0.00    -0.398 OA
ATOM      5  H   UNL d   1     131.753 126.099  94.105  0.00  0.00     0.209 HD
ENDBRANCH   3   4
ENDBRANCH   2   3
BRANCH   2   6
ATOM      6  O   UNL d   1     134.555 129.116  94.197  0.00  0.00    -0.382 OA
BRANCH   6   7
ATOM      7  C   UNL d   1     134.166 130.434  94.611  0.00  0.00     0.194 C 
BRANCH   7   8
ATOM      8  C   UNL d   1     133.791 131.227  93.363  0.00  0.00     0.190 C 
BRANCH   8   9
ATOM      9  O   UNL d   1     133.495 132.576  93.720  0.00  0.00    -0.399 OA
ATOM     10  H   UNL d   1     132.571 132.721  93.437  0.00  0.00     0.209 HD
ENDBRANCH   8   9
ENDBRANCH   7   8
ENDBRANCH   6   7
ENDBRANCH   2   6
TORSDOF 6
ENDMDL
MODEL 9
REMARK VINA RESULT:      -2.9     10.014     11.472
REMARK  6 active torsions:
REMARK  status: ('A' for Active; 'I' for Inactive)
REMARK    1  A    between atoms: C_2  and  C_3 
REMARK    2  A    between atoms: C_2  and  O_5 
REMARK    3  A    between atoms: C_3  and  O_4 
REMARK    4  A    between atoms: O_5  and  C_6 
REMARK    5  A    between atoms: C_6  and  C_7 
REMARK    6  A    between atoms: C_7  and  O_8 
ROOT
ATOM      1  C   UNL d   1     148.364 130.285  89.507  0.00  0.00     0.042 C 
ATOM      2  C   UNL d   1     147.856 129.782  90.856  0.00  0.00     0.141 C 
ENDROOT
BRANCH   2   3
ATOM      3  C   UNL d   1     148.923 128.938  91.568  0.00  0.00     0.195 C 
BRANCH   3   4
ATOM      4  O   UNL d   1     148.997 129.279  92.952  0.00  0.00    -0.398 OA
ATOM      5  H   UNL d   1     148.491 128.582  93.415  0.00  0.00     0.209 HD
ENDBRANCH   3   4
ENDBRANCH   2   3
BRANCH   2   6
ATOM      6  O   UNL d   1     147.554 130.887  91.728  0.00  0.00    -0.382 OA
BRANCH   6   7
ATOM      7  C   UNL d   1     147.759 132.166  91.112  0.00  0.00     0.194 C 
BRANCH   7   8
ATOM      8  C   UNL d   1     148.511 133.050  92.103  0.00  0.00     0.190 C 
BRANCH   8   9
ATOM      9  O   UNL d   1     149.058 132.247  93.147  0.00  0.00    -0.399 OA
ATOM     10  H   UNL d   1     149.878 132.701  93.420  0.00  0.00     0.209 HD
ENDBRANCH   8   9
ENDBRANCH   7   8
ENDBRANCH   6   7
ENDBRANCH   2   6
TORSDOF 6
ENDMDL
