../results/processed/lowest_conf/7XP6/docked/s2.pdbqt
 OpenBabel07252415363D

 10  9  0  0  1  0  0  0  0  0999 V2000
  145.3900  140.1570   99.9080 C   0  0  0  0  0  1  0  0  0  0  0  0
  146.3050  138.9350   99.9600 C   0  0  1  0  0  3  0  0  0  0  0  0
  146.2040  138.2290  101.3200 C   0  0  0  0  0  2  0  0  0  0  0  0
  146.9850  137.0340  101.3280 O   0  0  0  0  0  0  0  0  0  0  0  0
  147.9070  137.3290  101.1980 H   0  0  0  0  0  0  0  0  0  0  0  0
  145.9180  137.9700   98.9640 O   0  0  0  0  0  0  0  0  0  0  0  0
  144.4960  137.8460   98.8170 C   0  0  0  0  0  2  0  0  0  0  0  0
  144.1470  136.3610   98.8660 C   0  0  0  0  0  2  0  0  0  0  0  0
  145.2900  135.6100   99.2690 O   0  0  0  0  0  0  0  0  0  0  0  0
  145.9820  135.8200   98.6130 H   0  0  0  0  0  0  0  0  0  0  0  0
  2  1  1  1  0  0  0
  2  3  1  0  0  0  0
  3  4  1  0  0  0  0
  5  4  1  0  0  0  0
  6  2  1  0  0  0  0
  7  8  1  0  0  0  0
  7  6  1  0  0  0  0
  8  9  1  0  0  0  0
 10  9  1  0  0  0  0
M  END
>  <MODEL>
1

>  <REMARK>
 VINA RESULT:      -3.4      0.000      0.000
  6 active torsions:
  status: ('A' for Active; 'I' for Inactive)
    1  A    between atoms: C_2  and  C_3 
    2  A    between atoms: C_2  and  O_5 
    3  A    between atoms: C_3  and  O_4 
    4  A    between atoms: O_5  and  C_6 
    5  A    between atoms: C_6  and  C_7 
    6  A    between atoms: C_7  and  O_8 

>  <TORSDO>
F 6

$$$$
../results/processed/lowest_conf/7XP6/docked/s2.pdbqt
 OpenBabel07252415363D

 10  9  0  0  1  0  0  0  0  0999 V2000
  141.2690  131.6330   98.3620 C   0  0  0  0  0  1  0  0  0  0  0  0
  142.0990  131.8010   99.6330 C   0  0  1  0  0  3  0  0  0  0  0  0
  143.3470  130.9070   99.5980 C   0  0  0  0  0  2  0  0  0  0  0  0
  143.3780  130.0400  100.7320 O   0  0  0  0  0  0  0  0  0  0  0  0
  142.4640  129.7080  100.8270 H   0  0  0  0  0  0  0  0  0  0  0  0
  142.5660  133.1560   99.7570 O   0  0  0  0  0  0  0  0  0  0  0  0
  142.3520  133.9400   98.5740 C   0  0  0  0  0  2  0  0  0  0  0  0
  142.7730  135.3750   98.8780 C   0  0  0  0  0  2  0  0  0  0  0  0
  144.0690  135.3810   99.4750 O   0  0  0  0  0  0  0  0  0  0  0  0
  144.4870  134.5450   99.1940 H   0  0  0  0  0  0  0  0  0  0  0  0
  2  1  1  6  0  0  0
  2  6  1  0  0  0  0
  3  2  1  0  0  0  0
  3  4  1  0  0  0  0
  4  5  1  0  0  0  0
  7  8  1  0  0  0  0
  7  6  1  0  0  0  0
  8  9  1  0  0  0  0
 10  9  1  0  0  0  0
M  END
>  <MODEL>
2

>  <REMARK>
 VINA RESULT:      -3.1      4.352      6.587
  6 active torsions:
  status: ('A' for Active; 'I' for Inactive)
    1  A    between atoms: C_2  and  C_3 
    2  A    between atoms: C_2  and  O_5 
    3  A    between atoms: C_3  and  O_4 
    4  A    between atoms: O_5  and  C_6 
    5  A    between atoms: C_6  and  C_7 
    6  A    between atoms: C_7  and  O_8 

>  <TORSDO>
F 6

$$$$
../results/processed/lowest_conf/7XP6/docked/s2.pdbqt
 OpenBabel07252415363D

 10  9  0  0  1  0  0  0  0  0999 V2000
  133.9930  129.4490   92.6330 C   0  0  0  0  0  1  0  0  0  0  0  0
  133.0590  128.6710   93.5580 C   0  0  1  0  0  3  0  0  0  0  0  0
  133.5410  127.2240   93.7370 C   0  0  0  0  0  2  0  0  0  0  0  0
  132.6400  126.4900   94.5660 O   0  0  0  0  0  0  0  0  0  0  0  0
  133.1300  125.6850   94.8270 H   0  0  0  0  0  0  0  0  0  0  0  0
  133.0360  129.2630   94.8690 O   0  0  0  0  0  0  0  0  0  0  0  0
  134.2050  130.0430   95.1590 C   0  0  0  0  0  2  0  0  0  0  0  0
  134.4000  130.0530   96.6720 C   0  0  0  0  0  2  0  0  0  0  0  0
  133.5800  131.0620   97.2580 O   0  0  0  0  0  0  0  0  0  0  0  0
  134.2020  131.7190   97.6260 H   0  0  0  0  0  0  0  0  0  0  0  0
  2  1  1  6  0  0  0
  2  3  1  0  0  0  0
  2  6  1  0  0  0  0
  3  4  1  0  0  0  0
  4  5  1  0  0  0  0
  6  7  1  0  0  0  0
  7  8  1  0  0  0  0
  8  9  1  0  0  0  0
  9 10  1  0  0  0  0
M  END
>  <MODEL>
3

>  <REMARK>
 VINA RESULT:      -3.1     14.124     16.051
  6 active torsions:
  status: ('A' for Active; 'I' for Inactive)
    1  A    between atoms: C_2  and  C_3 
    2  A    between atoms: C_2  and  O_5 
    3  A    between atoms: C_3  and  O_4 
    4  A    between atoms: O_5  and  C_6 
    5  A    between atoms: C_6  and  C_7 
    6  A    between atoms: C_7  and  O_8 

>  <TORSDO>
F 6

$$$$
../results/processed/lowest_conf/7XP6/docked/s2.pdbqt
 OpenBabel07252415363D

 10  9  0  0  1  0  0  0  0  0999 V2000
  143.4610  137.8590   97.3250 C   0  0  0  0  0  1  0  0  0  0  0  0
  144.0850  137.3680   98.6300 C   0  0  1  0  0  3  0  0  0  0  0  0
  144.0300  135.8360   98.7240 C   0  0  0  0  0  2  0  0  0  0  0  0
  145.2620  135.3170   99.2260 O   0  0  0  0  0  0  0  0  0  0  0  0
  145.3600  135.7060  100.1180 H   0  0  0  0  0  0  0  0  0  0  0  0
  145.4740  137.7360   98.6980 O   0  0  0  0  0  0  0  0  0  0  0  0
  145.7320  138.8050   99.6210 C   0  0  0  0  0  2  0  0  0  0  0  0
  146.9510  138.4200  100.4550 C   0  0  0  0  0  2  0  0  0  0  0  0
  146.7340  137.1510  101.0680 O   0  0  0  0  0  0  0  0  0  0  0  0
  147.3000  137.1470  101.8640 H   0  0  0  0  0  0  0  0  0  0  0  0
  2  1  1  6  0  0  0
  2  6  1  0  0  0  0
  2  3  1  0  0  0  0
  3  4  1  0  0  0  0
  4  5  1  0  0  0  0
  6  7  1  0  0  0  0
  7  8  1  0  0  0  0
  8  9  1  0  0  0  0
  9 10  1  0  0  0  0
M  END
>  <MODEL>
4

>  <REMARK>
 VINA RESULT:      -3.0      0.865      3.124
  6 active torsions:
  status: ('A' for Active; 'I' for Inactive)
    1  A    between atoms: C_2  and  C_3 
    2  A    between atoms: C_2  and  O_5 
    3  A    between atoms: C_3  and  O_4 
    4  A    between atoms: O_5  and  C_6 
    5  A    between atoms: C_6  and  C_7 
    6  A    between atoms: C_7  and  O_8 

>  <TORSDO>
F 6

$$$$
../results/processed/lowest_conf/7XP6/docked/s2.pdbqt
 OpenBabel07252415363D

 10  9  0  0  1  0  0  0  0  0999 V2000
  142.4940  134.5280   98.9780 C   0  0  0  0  0  1  0  0  0  0  0  0
  143.3920  133.7820   97.9930 C   0  0  1  0  0  3  0  0  0  0  0  0
  144.7710  134.4490   97.8910 C   0  0  0  0  0  2  0  0  0  0  0  0
  145.1310  135.0580   99.1300 O   0  0  0  0  0  0  0  0  0  0  0  0
  145.7600  134.4370   99.5480 H   0  0  0  0  0  0  0  0  0  0  0  0
  143.6190  132.4320   98.4370 O   0  0  0  0  0  0  0  0  0  0  0  0
  142.7450  132.0310   99.5020 C   0  0  0  0  0  2  0  0  0  0  0  0
  143.2130  130.6680  100.0050 C   0  0  0  0  0  2  0  0  0  0  0  0
  143.4610  130.7320  101.4080 O   0  0  0  0  0  0  0  0  0  0  0  0
  144.3790  131.0540  101.4950 H   0  0  0  0  0  0  0  0  0  0  0  0
  2  6  1  0  0  0  0
  2  1  1  1  0  0  0
  3  2  1  0  0  0  0
  3  4  1  0  0  0  0
  4  5  1  0  0  0  0
  6  7  1  0  0  0  0
  7  8  1  0  0  0  0
  8  9  1  0  0  0  0
  9 10  1  0  0  0  0
M  END
>  <MODEL>
5

>  <REMARK>
 VINA RESULT:      -3.0      4.046      5.701
  6 active torsions:
  status: ('A' for Active; 'I' for Inactive)
    1  A    between atoms: C_2  and  C_3 
    2  A    between atoms: C_2  and  O_5 
    3  A    between atoms: C_3  and  O_4 
    4  A    between atoms: O_5  and  C_6 
    5  A    between atoms: C_6  and  C_7 
    6  A    between atoms: C_7  and  O_8 

>  <TORSDO>
F 6

$$$$
../results/processed/lowest_conf/7XP6/docked/s2.pdbqt
 OpenBabel07252415363D

 10  9  0  0  1  0  0  0  0  0999 V2000
  152.6700  128.4640  103.9890 C   0  0  0  0  0  1  0  0  0  0  0  0
  152.2510  129.0110  102.6260 C   0  0  1  0  0  3  0  0  0  0  0  0
  153.2510  128.5990  101.5360 C   0  0  0  0  0  2  0  0  0  0  0  0
  153.7890  129.7480  100.8830 O   0  0  0  0  0  0  0  0  0  0  0  0
  153.0140  130.2940  100.6450 H   0  0  0  0  0  0  0  0  0  0  0  0
  150.9730  128.4770  102.2370 O   0  0  0  0  0  0  0  0  0  0  0  0
  150.4910  127.4570  103.1230 C   0  0  0  0  0  2  0  0  0  0  0  0
  148.9660  127.5140  103.1200 C   0  0  0  0  0  2  0  0  0  0  0  0
  148.5320  128.7860  102.6430 O   0  0  0  0  0  0  0  0  0  0  0  0
  147.9080  128.5910  101.9170 H   0  0  0  0  0  0  0  0  0  0  0  0
  2  1  1  1  0  0  0
  3  2  1  0  0  0  0
  4  3  1  0  0  0  0
  5  4  1  0  0  0  0
  6  2  1  0  0  0  0
  6  7  1  0  0  0  0
  8  7  1  0  0  0  0
  9  8  1  0  0  0  0
 10  9  1  0  0  0  0
M  END
>  <MODEL>
6

>  <REMARK>
 VINA RESULT:      -3.0     10.915     11.544
  6 active torsions:
  status: ('A' for Active; 'I' for Inactive)
    1  A    between atoms: C_2  and  C_3 
    2  A    between atoms: C_2  and  O_5 
    3  A    between atoms: C_3  and  O_4 
    4  A    between atoms: O_5  and  C_6 
    5  A    between atoms: C_6  and  C_7 
    6  A    between atoms: C_7  and  O_8 

>  <TORSDO>
F 6

$$$$
../results/processed/lowest_conf/7XP6/docked/s2.pdbqt
 OpenBabel07252415363D

 10  9  0  0  1  0  0  0  0  0999 V2000
  134.0380  128.1130   93.6990 C   0  0  0  0  0  1  0  0  0  0  0  0
  134.3590  129.4300   94.4020 C   0  0  1  0  0  3  0  0  0  0  0  0
  133.9020  130.6290   93.5580 C   0  0  0  0  0  2  0  0  0  0  0  0
  134.7340  131.7640   93.8020 O   0  0  0  0  0  0  0  0  0  0  0  0
  135.4970  131.4190   94.3060 H   0  0  0  0  0  0  0  0  0  0  0  0
  133.6600  129.5180   95.6560 O   0  0  0  0  0  0  0  0  0  0  0  0
  134.5030  129.9190   96.7470 C   0  0  0  0  0  2  0  0  0  0  0  0
  133.6060  130.2510   97.9360 C   0  0  0  0  0  2  0  0  0  0  0  0
  133.6390  131.6550   98.1870 O   0  0  0  0  0  0  0  0  0  0  0  0
  132.7080  131.9150   98.3260 H   0  0  0  0  0  0  0  0  0  0  0  0
  2  1  1  6  0  0  0
  2  6  1  0  0  0  0
  3  4  1  0  0  0  0
  3  2  1  0  0  0  0
  4  5  1  0  0  0  0
  6  7  1  0  0  0  0
  7  8  1  0  0  0  0
  8  9  1  0  0  0  0
  9 10  1  0  0  0  0
M  END
>  <MODEL>
7

>  <REMARK>
 VINA RESULT:      -3.0     13.950     14.924
  6 active torsions:
  status: ('A' for Active; 'I' for Inactive)
    1  A    between atoms: C_2  and  C_3 
    2  A    between atoms: C_2  and  O_5 
    3  A    between atoms: C_3  and  O_4 
    4  A    between atoms: O_5  and  C_6 
    5  A    between atoms: C_6  and  C_7 
    6  A    between atoms: C_7  and  O_8 

>  <TORSDO>
F 6

$$$$
../results/processed/lowest_conf/7XP6/docked/s2.pdbqt
 OpenBabel07252415363D

 10  9  0  0  1  0  0  0  0  0999 V2000
  134.0830  127.3670   92.5640 C   0  0  0  0  0  1  0  0  0  0  0  0
  133.5020  128.3970   93.5300 C   0  0  1  0  0  3  0  0  0  0  0  0
  132.6710  127.7150   94.6270 C   0  0  0  0  0  2  0  0  0  0  0  0
  132.6500  126.3000   94.4400 O   0  0  0  0  0  0  0  0  0  0  0  0
  131.7530  126.0990   94.1050 H   0  0  0  0  0  0  0  0  0  0  0  0
  134.5550  129.1160   94.1970 O   0  0  0  0  0  0  0  0  0  0  0  0
  134.1660  130.4340   94.6110 C   0  0  0  0  0  2  0  0  0  0  0  0
  133.7910  131.2270   93.3630 C   0  0  0  0  0  2  0  0  0  0  0  0
  133.4950  132.5760   93.7200 O   0  0  0  0  0  0  0  0  0  0  0  0
  132.5710  132.7210   93.4370 H   0  0  0  0  0  0  0  0  0  0  0  0
  2  1  1  6  0  0  0
  2  6  1  0  0  0  0
  2  3  1  0  0  0  0
  4  3  1  0  0  0  0
  5  4  1  0  0  0  0
  6  7  1  0  0  0  0
  8  9  1  0  0  0  0
  8  7  1  0  0  0  0
 10  9  1  0  0  0  0
M  END
>  <MODEL>
8

>  <REMARK>
 VINA RESULT:      -2.9     14.703     16.282
  6 active torsions:
  status: ('A' for Active; 'I' for Inactive)
    1  A    between atoms: C_2  and  C_3 
    2  A    between atoms: C_2  and  O_5 
    3  A    between atoms: C_3  and  O_4 
    4  A    between atoms: O_5  and  C_6 
    5  A    between atoms: C_6  and  C_7 
    6  A    between atoms: C_7  and  O_8 

>  <TORSDO>
F 6

$$$$
../results/processed/lowest_conf/7XP6/docked/s2.pdbqt
 OpenBabel07252415363D

 10  9  0  0  1  0  0  0  0  0999 V2000
  148.3640  130.2850   89.5070 C   0  0  0  0  0  1  0  0  0  0  0  0
  147.8560  129.7820   90.8560 C   0  0  1  0  0  3  0  0  0  0  0  0
  148.9230  128.9380   91.5680 C   0  0  0  0  0  2  0  0  0  0  0  0
  148.9970  129.2790   92.9520 O   0  0  0  0  0  0  0  0  0  0  0  0
  148.4910  128.5820   93.4150 H   0  0  0  0  0  0  0  0  0  0  0  0
  147.5540  130.8870   91.7280 O   0  0  0  0  0  0  0  0  0  0  0  0
  147.7590  132.1660   91.1120 C   0  0  0  0  0  2  0  0  0  0  0  0
  148.5110  133.0500   92.1030 C   0  0  0  0  0  2  0  0  0  0  0  0
  149.0580  132.2470   93.1470 O   0  0  0  0  0  0  0  0  0  0  0  0
  149.8780  132.7010   93.4200 H   0  0  0  0  0  0  0  0  0  0  0  0
  2  1  1  6  0  0  0
  2  3  1  0  0  0  0
  2  6  1  0  0  0  0
  3  4  1  0  0  0  0
  4  5  1  0  0  0  0
  7  6  1  0  0  0  0
  7  8  1  0  0  0  0
  8  9  1  0  0  0  0
  9 10  1  0  0  0  0
M  END
>  <MODEL>
9

>  <REMARK>
 VINA RESULT:      -2.9     10.014     11.472
  6 active torsions:
  status: ('A' for Active; 'I' for Inactive)
    1  A    between atoms: C_2  and  C_3 
    2  A    between atoms: C_2  and  O_5 
    3  A    between atoms: C_3  and  O_4 
    4  A    between atoms: O_5  and  C_6 
    5  A    between atoms: C_6  and  C_7 
    6  A    between atoms: C_7  and  O_8 

>  <TORSDO>
F 6

$$$$
