../results/processed/lowest_conf/7XP6/docked/s2c.pdbqt
 OpenBabel07252415373D

 13 13  0  0  1  0  0  0  0  0999 V2000
  138.7570  137.6230  109.5530 C   0  0  2  0  0  3  0  0  0  0  0  0
  140.1420  137.0110  109.3230 C   0  0  0  0  0  2  0  0  0  0  0  0
  141.1480  138.0710  108.8910 C   0  0  0  0  0  2  0  0  0  0  0  0
  140.6200  138.8590  107.6950 C   0  0  1  0  0  3  0  0  0  0  0  0
  139.2030  139.3840  107.9920 C   0  0  1  0  0  3  0  0  0  0  0  0
  138.5870  140.0580  106.7690 C   0  0  0  0  0  1  0  0  0  0  0  0
  138.3270  138.3160  108.3720 O   0  0  0  0  0  0  0  0  0  0  0  0
  138.7570  138.5150  110.6740 O   0  0  0  0  0  0  0  0  0  0  0  0
  137.9570  138.1470  111.7060 C   0  0  0  0  0  0  0  0  0  0  0  0
  138.7760  137.5020  112.7830 C   0  0  0  0  0  1  0  0  0  0  0  0
  136.7460  138.3000  111.7620 O   0  0  0  0  0  0  0  0  0  0  0  0
  141.5330  139.9180  107.4230 O   0  0  0  0  0  0  0  0  0  0  0  0
  141.2420  140.6970  107.9260 H   0  0  0  0  0  0  0  0  0  0  0  0
  1  8  1  1  0  0  0
  2  1  1  0  0  0  0
  3  2  1  0  0  0  0
  4 12  1  1  0  0  0
  4  5  1  0  0  0  0
  4  3  1  0  0  0  0
  5  6  1  6  0  0  0
  5  7  1  0  0  0  0
  7  1  1  0  0  0  0
  8  9  1  0  0  0  0
  9 11  2  0  0  0  0
  9 10  1  0  0  0  0
 12 13  1  0  0  0  0
M  END
>  <MODEL>
1

>  <REMARK>
 VINA RESULT:      -4.6      0.000      0.000
  3 active torsions:
  status: ('A' for Active; 'I' for Inactive)
    1  A    between atoms: C_2  and  O_4 
    2  A    between atoms: O_4  and  C_5 
    3  A    between atoms: C_8  and  O_9 

>  <TORSDO>
F 3

$$$$
../results/processed/lowest_conf/7XP6/docked/s2c.pdbqt
 OpenBabel07252415373D

 13 13  0  0  1  0  0  0  0  0999 V2000
  151.2920  126.9040  102.9850 C   0  0  2  0  0  3  0  0  0  0  0  0
  151.8270  128.1670  103.6660 C   0  0  0  0  0  2  0  0  0  0  0  0
  152.4620  129.1120  102.6540 C   0  0  0  0  0  2  0  0  0  0  0  0
  153.5060  128.3800  101.8160 C   0  0  1  0  0  3  0  0  0  0  0  0
  152.9010  127.0950  101.2210 C   0  0  1  0  0  3  0  0  0  0  0  0
  153.9530  126.2650  100.4910 C   0  0  0  0  0  1  0  0  0  0  0  0
  152.3450  126.2650  102.2480 O   0  0  0  0  0  0  0  0  0  0  0  0
  150.1930  127.2000  102.1170 O   0  0  0  0  0  0  0  0  0  0  0  0
  149.0330  127.5250  102.7420 C   0  0  0  0  0  0  0  0  0  0  0  0
  148.5450  126.3610  103.5510 C   0  0  0  0  0  1  0  0  0  0  0  0
  148.4530  128.5980  102.6600 O   0  0  0  0  0  0  0  0  0  0  0  0
  153.9650  129.2700  100.8020 O   0  0  0  0  0  0  0  0  0  0  0  0
  154.6440  129.8430  101.1960 H   0  0  0  0  0  0  0  0  0  0  0  0
  1  8  1  6  0  0  0
  1  2  1  0  0  0  0
  3  2  1  0  0  0  0
  4 12  1  6  0  0  0
  4  3  1  0  0  0  0
  5  6  1  1  0  0  0
  5  4  1  0  0  0  0
  5  7  1  0  0  0  0
  7  1  1  0  0  0  0
  8  9  1  0  0  0  0
  9 10  1  0  0  0  0
 11  9  2  0  0  0  0
 12 13  1  0  0  0  0
M  END
>  <MODEL>
2

>  <REMARK>
 VINA RESULT:      -4.4     16.510     18.091
  3 active torsions:
  status: ('A' for Active; 'I' for Inactive)
    1  A    between atoms: C_2  and  O_4 
    2  A    between atoms: O_4  and  C_5 
    3  A    between atoms: C_8  and  O_9 

>  <TORSDO>
F 3

$$$$
../results/processed/lowest_conf/7XP6/docked/s2c.pdbqt
 OpenBabel07252415373D

 13 13  0  0  1  0  0  0  0  0999 V2000
  144.6450  139.8220   98.0510 C   0  0  2  0  0  3  0  0  0  0  0  0
  144.4780  138.6740   97.0520 C   0  0  0  0  0  2  0  0  0  0  0  0
  144.2470  137.3490   97.7690 C   0  0  0  0  0  2  0  0  0  0  0  0
  145.3360  137.1030   98.8090 C   0  0  1  0  0  3  0  0  0  0  0  0
  145.4760  138.3290   99.7300 C   0  0  1  0  0  3  0  0  0  0  0  0
  146.6480  138.1770  100.6950 C   0  0  0  0  0  1  0  0  0  0  0  0
  145.7070  139.5210   98.9680 O   0  0  0  0  0  0  0  0  0  0  0  0
  143.4320  140.0740   98.7690 O   0  0  0  0  0  0  0  0  0  0  0  0
  142.6200  141.0140   98.2210 C   0  0  0  0  0  0  0  0  0  0  0  0
  141.2250  140.8520   98.7420 C   0  0  0  0  0  1  0  0  0  0  0  0
  142.9580  141.8670   97.4130 O   0  0  0  0  0  0  0  0  0  0  0  0
  144.9960  135.9270   99.5380 O   0  0  0  0  0  0  0  0  0  0  0  0
  144.0530  135.7480   99.3900 H   0  0  0  0  0  0  0  0  0  0  0  0
  1  8  1  1  0  0  0
  1  7  1  0  0  0  0
  2  3  1  0  0  0  0
  2  1  1  0  0  0  0
  3  4  1  0  0  0  0
  4 12  1  1  0  0  0
  4  5  1  0  0  0  0
  5  6  1  1  0  0  0
  7  5  1  0  0  0  0
  9 10  1  0  0  0  0
  9  8  1  0  0  0  0
 11  9  2  0  0  0  0
 13 12  1  0  0  0  0
M  END
>  <MODEL>
3

>  <REMARK>
 VINA RESULT:      -4.3     11.455     12.517
  3 active torsions:
  status: ('A' for Active; 'I' for Inactive)
    1  A    between atoms: C_2  and  O_4 
    2  A    between atoms: O_4  and  C_5 
    3  A    between atoms: C_8  and  O_9 

>  <TORSDO>
F 3

$$$$
../results/processed/lowest_conf/7XP6/docked/s2c.pdbqt
 OpenBabel07252415373D

 13 13  0  0  1  0  0  0  0  0999 V2000
  142.6520  141.8290   96.4250 C   0  0  2  0  0  3  0  0  0  0  0  0
  142.0890  143.2380   96.6300 C   0  0  0  0  0  2  0  0  0  0  0  0
  140.7160  143.3820   95.9850 C   0  0  0  0  0  2  0  0  0  0  0  0
  140.7600  142.9470   94.5230 C   0  0  1  0  0  3  0  0  0  0  0  0
  141.3950  141.5490   94.4050 C   0  0  1  0  0  3  0  0  0  0  0  0
  141.5830  141.1380   92.9480 C   0  0  0  0  0  1  0  0  0  0  0  0
  142.6870  141.5170   95.0240 O   0  0  0  0  0  0  0  0  0  0  0  0
  141.8820  140.8480   97.1290 O   0  0  0  0  0  0  0  0  0  0  0  0
  142.0720  140.8200   98.4730 C   0  0  0  0  0  0  0  0  0  0  0  0
  140.7660  141.0250   99.1780 C   0  0  0  0  0  1  0  0  0  0  0  0
  143.1430  140.6630   99.0400 O   0  0  0  0  0  0  0  0  0  0  0  0
  139.4310  142.9720   94.0110 O   0  0  0  0  0  0  0  0  0  0  0  0
  139.4020  142.3910   93.2320 H   0  0  0  0  0  0  0  0  0  0  0  0
  1  2  1  0  0  0  0
  1  8  1  1  0  0  0
  3  2  1  0  0  0  0
  4 12  1  1  0  0  0
  4  3  1  0  0  0  0
  5  6  1  6  0  0  0
  5  4  1  0  0  0  0
  5  7  1  0  0  0  0
  7  1  1  0  0  0  0
  8  9  1  0  0  0  0
  9 11  2  0  0  0  0
  9 10  1  0  0  0  0
 13 12  1  0  0  0  0
M  END
>  <MODEL>
4

>  <REMARK>
 VINA RESULT:      -4.3     11.502     14.137
  3 active torsions:
  status: ('A' for Active; 'I' for Inactive)
    1  A    between atoms: C_2  and  O_4 
    2  A    between atoms: O_4  and  C_5 
    3  A    between atoms: C_8  and  O_9 

>  <TORSDO>
F 3

$$$$
../results/processed/lowest_conf/7XP6/docked/s2c.pdbqt
 OpenBabel07252415373D

 13 13  0  0  1  0  0  0  0  0999 V2000
  144.0800  136.6580   98.4280 C   0  0  2  0  0  3  0  0  0  0  0  0
  142.7690  135.9670   98.8170 C   0  0  0  0  0  2  0  0  0  0  0  0
  143.0110  134.5190   99.2260 C   0  0  0  0  0  2  0  0  0  0  0  0
  143.7960  133.7790   98.1470 C   0  0  1  0  0  3  0  0  0  0  0  0
  145.0620  134.5730   97.7760 C   0  0  1  0  0  3  0  0  0  0  0  0
  145.8020  133.9360   96.6030 C   0  0  0  0  0  1  0  0  0  0  0  0
  144.7340  135.9140   97.3900 O   0  0  0  0  0  0  0  0  0  0  0  0
  144.9520  136.8020   99.5550 O   0  0  0  0  0  0  0  0  0  0  0  0
  145.4670  138.0460   99.7320 C   0  0  0  0  0  0  0  0  0  0  0  0
  146.5040  138.0200  100.8130 C   0  0  0  0  0  1  0  0  0  0  0  0
  145.1370  139.0500   99.1180 O   0  0  0  0  0  0  0  0  0  0  0  0
  144.1100  132.4790   98.6380 O   0  0  0  0  0  0  0  0  0  0  0  0
  145.0200  132.5020   98.9790 H   0  0  0  0  0  0  0  0  0  0  0  0
  1  2  1  0  0  0  0
  1  8  1  1  0  0  0
  2  3  1  0  0  0  0
  4 12  1  1  0  0  0
  4  3  1  0  0  0  0
  5  6  1  6  0  0  0
  5  4  1  0  0  0  0
  7  5  1  0  0  0  0
  7  1  1  0  0  0  0
  8  9  1  0  0  0  0
  9 10  1  0  0  0  0
 11  9  2  0  0  0  0
 12 13  1  0  0  0  0
M  END
>  <MODEL>
5

>  <REMARK>
 VINA RESULT:      -4.2     11.597     12.807
  3 active torsions:
  status: ('A' for Active; 'I' for Inactive)
    1  A    between atoms: C_2  and  O_4 
    2  A    between atoms: O_4  and  C_5 
    3  A    between atoms: C_8  and  O_9 

>  <TORSDO>
F 3

$$$$
../results/processed/lowest_conf/7XP6/docked/s2c.pdbqt
 OpenBabel07252415373D

 13 13  0  0  1  0  0  0  0  0999 V2000
  145.6940  140.8750   99.0520 C   0  0  2  0  0  3  0  0  0  0  0  0
  145.2710  140.4740  100.4690 C   0  0  0  0  0  2  0  0  0  0  0  0
  145.7420  139.0650  100.8060 C   0  0  0  0  0  2  0  0  0  0  0  0
  145.2970  138.0770   99.7310 C   0  0  1  0  0  3  0  0  0  0  0  0
  145.7090  138.5880   98.3390 C   0  0  1  0  0  3  0  0  0  0  0  0
  145.1610  137.6970   97.2280 C   0  0  0  0  0  1  0  0  0  0  0  0
  145.2080  139.9100   98.1070 O   0  0  0  0  0  0  0  0  0  0  0  0
  147.1160  140.9970   98.9440 O   0  0  0  0  0  0  0  0  0  0  0  0
  147.5520  142.0290   98.1780 C   0  0  0  0  0  0  0  0  0  0  0  0
  147.0350  143.3250   98.7240 C   0  0  0  0  0  1  0  0  0  0  0  0
  148.2530  141.9330   97.1810 O   0  0  0  0  0  0  0  0  0  0  0  0
  145.8770  136.8090  100.0250 O   0  0  0  0  0  0  0  0  0  0  0  0
  146.8420  136.9000   99.9500 H   0  0  0  0  0  0  0  0  0  0  0  0
  1  8  1  1  0  0  0
  1  2  1  0  0  0  0
  2  3  1  0  0  0  0
  4 12  1  1  0  0  0
  4  3  1  0  0  0  0
  5  6  1  6  0  0  0
  5  4  1  0  0  0  0
  7  5  1  0  0  0  0
  7  1  1  0  0  0  0
  9 10  1  0  0  0  0
  9  8  1  0  0  0  0
 11  9  2  0  0  0  0
 13 12  1  0  0  0  0
M  END
>  <MODEL>
6

>  <REMARK>
 VINA RESULT:      -4.2     11.376     13.339
  3 active torsions:
  status: ('A' for Active; 'I' for Inactive)
    1  A    between atoms: C_2  and  O_4 
    2  A    between atoms: O_4  and  C_5 
    3  A    between atoms: C_8  and  O_9 

>  <TORSDO>
F 3

$$$$
../results/processed/lowest_conf/7XP6/docked/s2c.pdbqt
 OpenBabel07252415373D

 13 13  0  0  1  0  0  0  0  0999 V2000
  148.5970  146.3220  113.2910 C   0  0  2  0  0  3  0  0  0  0  0  0
  149.6110  147.0660  112.4180 C   0  0  0  0  0  2  0  0  0  0  0  0
  149.2540  148.5420  112.2960 C   0  0  0  0  0  2  0  0  0  0  0  0
  147.8090  148.7090  111.8330 C   0  0  1  0  0  3  0  0  0  0  0  0
  146.8680  147.8810  112.7280 C   0  0  1  0  0  3  0  0  0  0  0  0
  145.4320  147.9110  112.2130 C   0  0  0  0  0  1  0  0  0  0  0  0
  147.2730  146.5070  112.7670 O   0  0  0  0  0  0  0  0  0  0  0  0
  148.6530  146.7610  114.6530 O   0  0  0  0  0  0  0  0  0  0  0  0
  148.6730  145.7700  115.5800 C   0  0  0  0  0  0  0  0  0  0  0  0
  148.8510  146.3540  116.9490 C   0  0  0  0  0  1  0  0  0  0  0  0
  148.5720  144.5740  115.3500 O   0  0  0  0  0  0  0  0  0  0  0  0
  147.4880  150.0970  111.8680 O   0  0  0  0  0  0  0  0  0  0  0  0
  146.5200  150.1790  111.8540 H   0  0  0  0  0  0  0  0  0  0  0  0
  1  8  1  1  0  0  0
  2  1  1  0  0  0  0
  3  2  1  0  0  0  0
  4 12  1  1  0  0  0
  4  3  1  0  0  0  0
  4  5  1  0  0  0  0
  5  6  1  6  0  0  0
  5  7  1  0  0  0  0
  7  1  1  0  0  0  0
  8  9  1  0  0  0  0
  9 10  1  0  0  0  0
 11  9  2  0  0  0  0
 13 12  1  0  0  0  0
M  END
>  <MODEL>
7

>  <REMARK>
 VINA RESULT:      -4.2     12.353     13.277
  3 active torsions:
  status: ('A' for Active; 'I' for Inactive)
    1  A    between atoms: C_2  and  O_4 
    2  A    between atoms: O_4  and  C_5 
    3  A    between atoms: C_8  and  O_9 

>  <TORSDO>
F 3

$$$$
../results/processed/lowest_conf/7XP6/docked/s2c.pdbqt
 OpenBabel07252415373D

 13 13  0  0  1  0  0  0  0  0999 V2000
  145.0180  140.2430   99.7430 C   0  0  2  0  0  3  0  0  0  0  0  0
  143.7480  140.5440   98.9410 C   0  0  0  0  0  2  0  0  0  0  0  0
  144.0850  141.1340   97.5770 C   0  0  0  0  0  2  0  0  0  0  0  0
  145.0140  142.3350   97.7260 C   0  0  1  0  0  3  0  0  0  0  0  0
  146.2290  141.9600   98.5940 C   0  0  1  0  0  3  0  0  0  0  0  0
  147.1110  143.1720   98.8800 C   0  0  0  0  0  1  0  0  0  0  0  0
  145.8140  141.4310   99.8590 O   0  0  0  0  0  0  0  0  0  0  0  0
  145.7840  139.1940   99.1390 O   0  0  0  0  0  0  0  0  0  0  0  0
  145.6940  137.9860   99.7510 C   0  0  0  0  0  0  0  0  0  0  0  0
  146.5440  137.9730  100.9850 C   0  0  0  0  0  1  0  0  0  0  0  0
  145.0310  137.0360   99.3620 O   0  0  0  0  0  0  0  0  0  0  0  0
  145.4030  142.7600   96.4220 O   0  0  0  0  0  0  0  0  0  0  0  0
  145.1130  143.6810   96.3120 H   0  0  0  0  0  0  0  0  0  0  0  0
  1  8  1  6  0  0  0
  1  7  1  0  0  0  0
  2  1  1  0  0  0  0
  3  4  1  0  0  0  0
  3  2  1  0  0  0  0
  4 12  1  6  0  0  0
  4  5  1  0  0  0  0
  5  6  1  1  0  0  0
  5  7  1  0  0  0  0
  8  9  1  0  0  0  0
  9 10  1  0  0  0  0
 11  9  2  0  0  0  0
 13 12  1  0  0  0  0
M  END
>  <MODEL>
8

>  <REMARK>
 VINA RESULT:      -4.2     11.534     12.692
  3 active torsions:
  status: ('A' for Active; 'I' for Inactive)
    1  A    between atoms: C_2  and  O_4 
    2  A    between atoms: O_4  and  C_5 
    3  A    between atoms: C_8  and  O_9 

>  <TORSDO>
F 3

$$$$
../results/processed/lowest_conf/7XP6/docked/s2c.pdbqt
 OpenBabel07252415373D

 13 13  0  0  1  0  0  0  0  0999 V2000
  142.7260  133.5500   98.0770 C   0  0  2  0  0  3  0  0  0  0  0  0
  143.6480  134.7030   98.4850 C   0  0  0  0  0  2  0  0  0  0  0  0
  142.8490  135.8800   99.0290 C   0  0  0  0  0  2  0  0  0  0  0  0
  141.7560  136.2890   98.0450 C   0  0  1  0  0  3  0  0  0  0  0  0
  140.9190  135.0610   97.6440 C   0  0  1  0  0  3  0  0  0  0  0  0
  139.9050  135.4030   96.5560 C   0  0  0  0  0  1  0  0  0  0  0  0
  141.7530  134.0150   97.1300 O   0  0  0  0  0  0  0  0  0  0  0  0
  142.0720  132.9730   99.2120 O   0  0  0  0  0  0  0  0  0  0  0  0
  141.9070  131.6270   99.1630 C   0  0  0  0  0  0  0  0  0  0  0  0
  142.8930  130.9570  100.0700 C   0  0  0  0  0  1  0  0  0  0  0  0
  141.0870  131.0320   98.4780 O   0  0  0  0  0  0  0  0  0  0  0  0
  140.9590  137.2970   98.6600 O   0  0  0  0  0  0  0  0  0  0  0  0
  141.5580  137.9860   98.9940 H   0  0  0  0  0  0  0  0  0  0  0  0
  1  2  1  0  0  0  0
  1  8  1  1  0  0  0
  2  3  1  0  0  0  0
  4 12  1  1  0  0  0
  4  3  1  0  0  0  0
  5  6  1  6  0  0  0
  5  4  1  0  0  0  0
  7  5  1  0  0  0  0
  7  1  1  0  0  0  0
  9  8  1  0  0  0  0
  9 10  1  0  0  0  0
 11  9  2  0  0  0  0
 12 13  1  0  0  0  0
M  END
>  <MODEL>
9

>  <REMARK>
 VINA RESULT:      -4.1     11.423     12.450
  3 active torsions:
  status: ('A' for Active; 'I' for Inactive)
    1  A    between atoms: C_2  and  O_4 
    2  A    between atoms: O_4  and  C_5 
    3  A    between atoms: C_8  and  O_9 

>  <TORSDO>
F 3

$$$$
