MODEL 1
REMARK VINA RESULT:      -4.6      0.000      0.000
REMARK  3 active torsions:
REMARK  status: ('A' for Active; 'I' for Inactive)
REMARK    1  A    between atoms: C_2  and  O_4 
REMARK    2  A    between atoms: O_4  and  C_5 
REMARK    3  A    between atoms: C_8  and  O_9 
ROOT
ATOM      1  C   UNL d   1     138.757 137.623 109.553  0.00  0.00     0.270 C 
ATOM      2  C   UNL d   1     140.142 137.011 109.323  0.00  0.00     0.064 C 
ATOM      3  C   UNL d   1     141.148 138.071 108.891  0.00  0.00     0.039 C 
ATOM      4  C   UNL d   1     140.620 138.859 107.695  0.00  0.00     0.147 C 
ATOM      5  C   UNL d   1     139.203 139.384 107.992  0.00  0.00     0.149 C 
ATOM      6  C   UNL d   1     138.587 140.058 106.769  0.00  0.00     0.042 C 
ATOM      7  O   UNL d   1     138.327 138.316 108.372  0.00  0.00    -0.353 OA
ENDROOT
BRANCH   1   8
ATOM      8  O   UNL d   1     138.757 138.515 110.674  0.00  0.00    -0.290 OA
BRANCH   8   9
ATOM      9  C   UNL d   1     137.957 138.147 111.706  0.00  0.00     0.257 C 
ATOM     10  C   UNL d   1     138.776 137.502 112.783  0.00  0.00     0.126 C 
ATOM     11  O   UNL d   1     136.746 138.300 111.762  0.00  0.00    -0.266 OA
ENDBRANCH   8   9
ENDBRANCH   1   8
BRANCH   4  12
ATOM     12  O   UNL d   1     141.533 139.918 107.423  0.00  0.00    -0.393 OA
ATOM     13  H   UNL d   1     141.242 140.697 107.926  0.00  0.00     0.210 HD
ENDBRANCH   4  12
TORSDOF 3
ENDMDL
MODEL 2
REMARK VINA RESULT:      -4.4     16.510     18.091
REMARK  3 active torsions:
REMARK  status: ('A' for Active; 'I' for Inactive)
REMARK    1  A    between atoms: C_2  and  O_4 
REMARK    2  A    between atoms: O_4  and  C_5 
REMARK    3  A    between atoms: C_8  and  O_9 
ROOT
ATOM      1  C   UNL d   1     151.292 126.904 102.985  0.00  0.00     0.270 C 
ATOM      2  C   UNL d   1     151.827 128.167 103.666  0.00  0.00     0.064 C 
ATOM      3  C   UNL d   1     152.462 129.112 102.654  0.00  0.00     0.039 C 
ATOM      4  C   UNL d   1     153.506 128.380 101.816  0.00  0.00     0.147 C 
ATOM      5  C   UNL d   1     152.901 127.095 101.221  0.00  0.00     0.149 C 
ATOM      6  C   UNL d   1     153.953 126.265 100.491  0.00  0.00     0.042 C 
ATOM      7  O   UNL d   1     152.345 126.265 102.248  0.00  0.00    -0.353 OA
ENDROOT
BRANCH   1   8
ATOM      8  O   UNL d   1     150.193 127.200 102.117  0.00  0.00    -0.290 OA
BRANCH   8   9
ATOM      9  C   UNL d   1     149.033 127.525 102.742  0.00  0.00     0.257 C 
ATOM     10  C   UNL d   1     148.545 126.361 103.551  0.00  0.00     0.126 C 
ATOM     11  O   UNL d   1     148.453 128.598 102.660  0.00  0.00    -0.266 OA
ENDBRANCH   8   9
ENDBRANCH   1   8
BRANCH   4  12
ATOM     12  O   UNL d   1     153.965 129.270 100.802  0.00  0.00    -0.393 OA
ATOM     13  H   UNL d   1     154.644 129.843 101.196  0.00  0.00     0.210 HD
ENDBRANCH   4  12
TORSDOF 3
ENDMDL
MODEL 3
REMARK VINA RESULT:      -4.3     11.455     12.517
REMARK  3 active torsions:
REMARK  status: ('A' for Active; 'I' for Inactive)
REMARK    1  A    between atoms: C_2  and  O_4 
REMARK    2  A    between atoms: O_4  and  C_5 
REMARK    3  A    between atoms: C_8  and  O_9 
ROOT
ATOM      1  C   UNL d   1     144.645 139.822  98.051  0.00  0.00     0.270 C 
ATOM      2  C   UNL d   1     144.478 138.674  97.052  0.00  0.00     0.064 C 
ATOM      3  C   UNL d   1     144.247 137.349  97.769  0.00  0.00     0.039 C 
ATOM      4  C   UNL d   1     145.336 137.103  98.809  0.00  0.00     0.147 C 
ATOM      5  C   UNL d   1     145.476 138.329  99.730  0.00  0.00     0.149 C 
ATOM      6  C   UNL d   1     146.648 138.177 100.695  0.00  0.00     0.042 C 
ATOM      7  O   UNL d   1     145.707 139.521  98.968  0.00  0.00    -0.353 OA
ENDROOT
BRANCH   1   8
ATOM      8  O   UNL d   1     143.432 140.074  98.769  0.00  0.00    -0.290 OA
BRANCH   8   9
ATOM      9  C   UNL d   1     142.620 141.014  98.221  0.00  0.00     0.257 C 
ATOM     10  C   UNL d   1     141.225 140.852  98.742  0.00  0.00     0.126 C 
ATOM     11  O   UNL d   1     142.958 141.867  97.413  0.00  0.00    -0.266 OA
ENDBRANCH   8   9
ENDBRANCH   1   8
BRANCH   4  12
ATOM     12  O   UNL d   1     144.996 135.927  99.538  0.00  0.00    -0.393 OA
ATOM     13  H   UNL d   1     144.053 135.748  99.390  0.00  0.00     0.210 HD
ENDBRANCH   4  12
TORSDOF 3
ENDMDL
MODEL 4
REMARK VINA RESULT:      -4.3     11.502     14.137
REMARK  3 active torsions:
REMARK  status: ('A' for Active; 'I' for Inactive)
REMARK    1  A    between atoms: C_2  and  O_4 
REMARK    2  A    between atoms: O_4  and  C_5 
REMARK    3  A    between atoms: C_8  and  O_9 
ROOT
ATOM      1  C   UNL d   1     142.652 141.829  96.425  0.00  0.00     0.270 C 
ATOM      2  C   UNL d   1     142.089 143.238  96.630  0.00  0.00     0.064 C 
ATOM      3  C   UNL d   1     140.716 143.382  95.985  0.00  0.00     0.039 C 
ATOM      4  C   UNL d   1     140.760 142.947  94.523  0.00  0.00     0.147 C 
ATOM      5  C   UNL d   1     141.395 141.549  94.405  0.00  0.00     0.149 C 
ATOM      6  C   UNL d   1     141.583 141.138  92.948  0.00  0.00     0.042 C 
ATOM      7  O   UNL d   1     142.687 141.517  95.024  0.00  0.00    -0.353 OA
ENDROOT
BRANCH   1   8
ATOM      8  O   UNL d   1     141.882 140.848  97.129  0.00  0.00    -0.290 OA
BRANCH   8   9
ATOM      9  C   UNL d   1     142.072 140.820  98.473  0.00  0.00     0.257 C 
ATOM     10  C   UNL d   1     140.766 141.025  99.178  0.00  0.00     0.126 C 
ATOM     11  O   UNL d   1     143.143 140.663  99.040  0.00  0.00    -0.266 OA
ENDBRANCH   8   9
ENDBRANCH   1   8
BRANCH   4  12
ATOM     12  O   UNL d   1     139.431 142.972  94.011  0.00  0.00    -0.393 OA
ATOM     13  H   UNL d   1     139.402 142.391  93.232  0.00  0.00     0.210 HD
ENDBRANCH   4  12
TORSDOF 3
ENDMDL
MODEL 5
REMARK VINA RESULT:      -4.2     11.597     12.807
REMARK  3 active torsions:
REMARK  status: ('A' for Active; 'I' for Inactive)
REMARK    1  A    between atoms: C_2  and  O_4 
REMARK    2  A    between atoms: O_4  and  C_5 
REMARK    3  A    between atoms: C_8  and  O_9 
ROOT
ATOM      1  C   UNL d   1     144.080 136.658  98.428  0.00  0.00     0.270 C 
ATOM      2  C   UNL d   1     142.769 135.967  98.817  0.00  0.00     0.064 C 
ATOM      3  C   UNL d   1     143.011 134.519  99.226  0.00  0.00     0.039 C 
ATOM      4  C   UNL d   1     143.796 133.779  98.147  0.00  0.00     0.147 C 
ATOM      5  C   UNL d   1     145.062 134.573  97.776  0.00  0.00     0.149 C 
ATOM      6  C   UNL d   1     145.802 133.936  96.603  0.00  0.00     0.042 C 
ATOM      7  O   UNL d   1     144.734 135.914  97.390  0.00  0.00    -0.353 OA
ENDROOT
BRANCH   1   8
ATOM      8  O   UNL d   1     144.952 136.802  99.555  0.00  0.00    -0.290 OA
BRANCH   8   9
ATOM      9  C   UNL d   1     145.467 138.046  99.732  0.00  0.00     0.257 C 
ATOM     10  C   UNL d   1     146.504 138.020 100.813  0.00  0.00     0.126 C 
ATOM     11  O   UNL d   1     145.137 139.050  99.118  0.00  0.00    -0.266 OA
ENDBRANCH   8   9
ENDBRANCH   1   8
BRANCH   4  12
ATOM     12  O   UNL d   1     144.110 132.479  98.638  0.00  0.00    -0.393 OA
ATOM     13  H   UNL d   1     145.020 132.502  98.979  0.00  0.00     0.210 HD
ENDBRANCH   4  12
TORSDOF 3
ENDMDL
MODEL 6
REMARK VINA RESULT:      -4.2     11.376     13.339
REMARK  3 active torsions:
REMARK  status: ('A' for Active; 'I' for Inactive)
REMARK    1  A    between atoms: C_2  and  O_4 
REMARK    2  A    between atoms: O_4  and  C_5 
REMARK    3  A    between atoms: C_8  and  O_9 
ROOT
ATOM      1  C   UNL d   1     145.694 140.875  99.052  0.00  0.00     0.270 C 
ATOM      2  C   UNL d   1     145.271 140.474 100.469  0.00  0.00     0.064 C 
ATOM      3  C   UNL d   1     145.742 139.065 100.806  0.00  0.00     0.039 C 
ATOM      4  C   UNL d   1     145.297 138.077  99.731  0.00  0.00     0.147 C 
ATOM      5  C   UNL d   1     145.709 138.588  98.339  0.00  0.00     0.149 C 
ATOM      6  C   UNL d   1     145.161 137.697  97.228  0.00  0.00     0.042 C 
ATOM      7  O   UNL d   1     145.208 139.910  98.107  0.00  0.00    -0.353 OA
ENDROOT
BRANCH   1   8
ATOM      8  O   UNL d   1     147.116 140.997  98.944  0.00  0.00    -0.290 OA
BRANCH   8   9
ATOM      9  C   UNL d   1     147.552 142.029  98.178  0.00  0.00     0.257 C 
ATOM     10  C   UNL d   1     147.035 143.325  98.724  0.00  0.00     0.126 C 
ATOM     11  O   UNL d   1     148.253 141.933  97.181  0.00  0.00    -0.266 OA
ENDBRANCH   8   9
ENDBRANCH   1   8
BRANCH   4  12
ATOM     12  O   UNL d   1     145.877 136.809 100.025  0.00  0.00    -0.393 OA
ATOM     13  H   UNL d   1     146.842 136.900  99.950  0.00  0.00     0.210 HD
ENDBRANCH   4  12
TORSDOF 3
ENDMDL
MODEL 7
REMARK VINA RESULT:      -4.2     12.353     13.277
REMARK  3 active torsions:
REMARK  status: ('A' for Active; 'I' for Inactive)
REMARK    1  A    between atoms: C_2  and  O_4 
REMARK    2  A    between atoms: O_4  and  C_5 
REMARK    3  A    between atoms: C_8  and  O_9 
ROOT
ATOM      1  C   UNL d   1     148.597 146.322 113.291  0.00  0.00     0.270 C 
ATOM      2  C   UNL d   1     149.611 147.066 112.418  0.00  0.00     0.064 C 
ATOM      3  C   UNL d   1     149.254 148.542 112.296  0.00  0.00     0.039 C 
ATOM      4  C   UNL d   1     147.809 148.709 111.833  0.00  0.00     0.147 C 
ATOM      5  C   UNL d   1     146.868 147.881 112.728  0.00  0.00     0.149 C 
ATOM      6  C   UNL d   1     145.432 147.911 112.213  0.00  0.00     0.042 C 
ATOM      7  O   UNL d   1     147.273 146.507 112.767  0.00  0.00    -0.353 OA
ENDROOT
BRANCH   1   8
ATOM      8  O   UNL d   1     148.653 146.761 114.653  0.00  0.00    -0.290 OA
BRANCH   8   9
ATOM      9  C   UNL d   1     148.673 145.770 115.580  0.00  0.00     0.257 C 
ATOM     10  C   UNL d   1     148.851 146.354 116.949  0.00  0.00     0.126 C 
ATOM     11  O   UNL d   1     148.572 144.574 115.350  0.00  0.00    -0.266 OA
ENDBRANCH   8   9
ENDBRANCH   1   8
BRANCH   4  12
ATOM     12  O   UNL d   1     147.488 150.097 111.868  0.00  0.00    -0.393 OA
ATOM     13  H   UNL d   1     146.520 150.179 111.854  0.00  0.00     0.210 HD
ENDBRANCH   4  12
TORSDOF 3
ENDMDL
MODEL 8
REMARK VINA RESULT:      -4.2     11.534     12.692
REMARK  3 active torsions:
REMARK  status: ('A' for Active; 'I' for Inactive)
REMARK    1  A    between atoms: C_2  and  O_4 
REMARK    2  A    between atoms: O_4  and  C_5 
REMARK    3  A    between atoms: C_8  and  O_9 
ROOT
ATOM      1  C   UNL d   1     145.018 140.243  99.743  0.00  0.00     0.270 C 
ATOM      2  C   UNL d   1     143.748 140.544  98.941  0.00  0.00     0.064 C 
ATOM      3  C   UNL d   1     144.085 141.134  97.577  0.00  0.00     0.039 C 
ATOM      4  C   UNL d   1     145.014 142.335  97.726  0.00  0.00     0.147 C 
ATOM      5  C   UNL d   1     146.229 141.960  98.594  0.00  0.00     0.149 C 
ATOM      6  C   UNL d   1     147.111 143.172  98.880  0.00  0.00     0.042 C 
ATOM      7  O   UNL d   1     145.814 141.431  99.859  0.00  0.00    -0.353 OA
ENDROOT
BRANCH   1   8
ATOM      8  O   UNL d   1     145.784 139.194  99.139  0.00  0.00    -0.290 OA
BRANCH   8   9
ATOM      9  C   UNL d   1     145.694 137.986  99.751  0.00  0.00     0.257 C 
ATOM     10  C   UNL d   1     146.544 137.973 100.985  0.00  0.00     0.126 C 
ATOM     11  O   UNL d   1     145.031 137.036  99.362  0.00  0.00    -0.266 OA
ENDBRANCH   8   9
ENDBRANCH   1   8
BRANCH   4  12
ATOM     12  O   UNL d   1     145.403 142.760  96.422  0.00  0.00    -0.393 OA
ATOM     13  H   UNL d   1     145.113 143.681  96.312  0.00  0.00     0.210 HD
ENDBRANCH   4  12
TORSDOF 3
ENDMDL
MODEL 9
REMARK VINA RESULT:      -4.1     11.423     12.450
REMARK  3 active torsions:
REMARK  status: ('A' for Active; 'I' for Inactive)
REMARK    1  A    between atoms: C_2  and  O_4 
REMARK    2  A    between atoms: O_4  and  C_5 
REMARK    3  A    between atoms: C_8  and  O_9 
ROOT
ATOM      1  C   UNL d   1     142.726 133.550  98.077  0.00  0.00     0.270 C 
ATOM      2  C   UNL d   1     143.648 134.703  98.485  0.00  0.00     0.064 C 
ATOM      3  C   UNL d   1     142.849 135.880  99.029  0.00  0.00     0.039 C 
ATOM      4  C   UNL d   1     141.756 136.289  98.045  0.00  0.00     0.147 C 
ATOM      5  C   UNL d   1     140.919 135.061  97.644  0.00  0.00     0.149 C 
ATOM      6  C   UNL d   1     139.905 135.403  96.556  0.00  0.00     0.042 C 
ATOM      7  O   UNL d   1     141.753 134.015  97.130  0.00  0.00    -0.353 OA
ENDROOT
BRANCH   1   8
ATOM      8  O   UNL d   1     142.072 132.973  99.212  0.00  0.00    -0.290 OA
BRANCH   8   9
ATOM      9  C   UNL d   1     141.907 131.627  99.163  0.00  0.00     0.257 C 
ATOM     10  C   UNL d   1     142.893 130.957 100.070  0.00  0.00     0.126 C 
ATOM     11  O   UNL d   1     141.087 131.032  98.478  0.00  0.00    -0.266 OA
ENDBRANCH   8   9
ENDBRANCH   1   8
BRANCH   4  12
ATOM     12  O   UNL d   1     140.959 137.297  98.660  0.00  0.00    -0.393 OA
ATOM     13  H   UNL d   1     141.558 137.986  98.994  0.00  0.00     0.210 HD
ENDBRANCH   4  12
TORSDOF 3
ENDMDL
