../results/processed/lowest_conf/7XP6/docked/s3.pdbqt
 OpenBabel07252415363D

 15 14  0  0  1  0  0  0  0  0999 V2000
  143.7970  134.5430   97.5330 C   0  0  1  0  0  3  0  0  0  0  0  0
  142.6710  133.5740   97.7980 C   0  0  0  0  0  0  0  0  0  0  0  0
  141.4820  133.8450   97.6890 O   0  0  0  0  0  0  0  0  0  0  0  0
  143.1600  132.3830   98.2410 O   0  0  0  0  0  0  0  0  0  0  0  0
  142.2520  131.6420   99.0650 C   0  0  0  0  0  2  0  0  0  0  0  0
  143.0520  130.9660  100.1610 C   0  0  0  0  0  1  0  0  0  0  0  0
  143.9250  135.4790   98.7320 C   0  0  0  0  0  2  0  0  0  0  0  0
  143.3650  134.8570   99.8870 O   0  0  0  0  0  0  0  0  0  0  0  0
  143.4320  135.5010  100.6140 H   0  0  0  0  0  0  0  0  0  0  0  0
  145.0770  133.7420   97.2880 C   0  0  1  0  0  3  0  0  0  0  0  0
  146.0850  134.4890   96.4030 C   0  0  0  0  0  2  0  0  0  0  0  0
  147.0660  133.5480   95.9570 O   0  0  0  0  0  0  0  0  0  0  0  0
  147.9330  133.9880   96.0290 H   0  0  0  0  0  0  0  0  0  0  0  0
  145.7240  133.4690   98.5420 O   0  0  0  0  0  0  0  0  0  0  0  0
  145.5110  134.2420   99.1040 H   0  0  0  0  0  0  0  0  0  0  0  0
  1  2  1  0  0  0  0
  1  7  1  1  0  0  0
  2  4  1  0  0  0  0
  3  2  2  0  0  0  0
  4  5  1  0  0  0  0
  5  6  1  0  0  0  0
  7  8  1  0  0  0  0
  8  9  1  0  0  0  0
 10 11  1  6  0  0  0
 10  1  1  0  0  0  0
 10 14  1  0  0  0  0
 12 13  1  0  0  0  0
 12 11  1  0  0  0  0
 14 15  1  0  0  0  0
M  END
>  <MODEL>
1

>  <REMARK>
 VINA RESULT:      -3.8      0.000      0.000
  9 active torsions:
  status: ('A' for Active; 'I' for Inactive)
    1  A    between atoms: C_2  and  O_3 
    2  A    between atoms: O_3  and  C_4 
    3  A    between atoms: C_4  and  C_6 
    4  A    between atoms: C_6  and  C_7 
    5  A    between atoms: C_6  and  C_9 
    6  A    between atoms: C_7  and  O_8 
    7  A    between atoms: C_9  and  C_10 
    8  A    between atoms: C_9  and  O_12 
    9  A    between atoms: C_10  and  O_11 

>  <TORSDO>
F 9

$$$$
../results/processed/lowest_conf/7XP6/docked/s3.pdbqt
 OpenBabel07252415363D

 15 14  0  0  1  0  0  0  0  0999 V2000
  142.7880  135.1920   99.0490 C   0  0  1  0  0  3  0  0  0  0  0  0
  143.0360  133.7360   98.7380 C   0  0  0  0  0  0  0  0  0  0  0  0
  143.5840  133.3260   97.7230 O   0  0  0  0  0  0  0  0  0  0  0  0
  142.5050  132.9430   99.7100 O   0  0  0  0  0  0  0  0  0  0  0  0
  142.4060  131.5590   99.3530 C   0  0  0  0  0  2  0  0  0  0  0  0
  143.1690  130.7490  100.3820 C   0  0  0  0  0  1  0  0  0  0  0  0
  144.0570  135.9790   98.7310 C   0  0  0  0  0  2  0  0  0  0  0  0
  145.1950  135.2710   99.2210 O   0  0  0  0  0  0  0  0  0  0  0  0
  145.9570  135.5630   98.6910 H   0  0  0  0  0  0  0  0  0  0  0  0
  141.5930  135.6670   98.2210 C   0  0  1  0  0  3  0  0  0  0  0  0
  142.0130  136.3880   96.9320 C   0  0  0  0  0  2  0  0  0  0  0  0
  142.0810  135.4170   95.8830 O   0  0  0  0  0  0  0  0  0  0  0  0
  142.7830  134.7870   96.1270 H   0  0  0  0  0  0  0  0  0  0  0  0
  140.7870  134.5400   97.8430 O   0  0  0  0  0  0  0  0  0  0  0  0
  140.8940  133.9010   98.5770 H   0  0  0  0  0  0  0  0  0  0  0  0
  1  7  1  6  0  0  0
  2  1  1  0  0  0  0
  2  4  1  0  0  0  0
  3  2  2  0  0  0  0
  5  4  1  0  0  0  0
  5  6  1  0  0  0  0
  7  8  1  0  0  0  0
  9  8  1  0  0  0  0
 10 11  1  6  0  0  0
 10  1  1  0  0  0  0
 12 13  1  0  0  0  0
 12 11  1  0  0  0  0
 14 10  1  0  0  0  0
 14 15  1  0  0  0  0
M  END
>  <MODEL>
2

>  <REMARK>
 VINA RESULT:      -3.7      1.996      3.005
  9 active torsions:
  status: ('A' for Active; 'I' for Inactive)
    1  A    between atoms: C_2  and  O_3 
    2  A    between atoms: O_3  and  C_4 
    3  A    between atoms: C_4  and  C_6 
    4  A    between atoms: C_6  and  C_7 
    5  A    between atoms: C_6  and  C_9 
    6  A    between atoms: C_7  and  O_8 
    7  A    between atoms: C_9  and  C_10 
    8  A    between atoms: C_9  and  O_12 
    9  A    between atoms: C_10  and  O_11 

>  <TORSDO>
F 9

$$$$
../results/processed/lowest_conf/7XP6/docked/s3.pdbqt
 OpenBabel07252415363D

 15 14  0  0  1  0  0  0  0  0999 V2000
  141.8760  133.2110   98.6270 C   0  0  1  0  0  3  0  0  0  0  0  0
  142.2560  134.6620   98.7920 C   0  0  0  0  0  0  0  0  0  0  0  0
  143.2030  135.0610   99.4560 O   0  0  0  0  0  0  0  0  0  0  0  0
  141.3580  135.4650   98.1560 O   0  0  0  0  0  0  0  0  0  0  0  0
  141.7320  136.8480   98.1120 C   0  0  0  0  0  2  0  0  0  0  0  0
  140.5100  137.6790   98.4510 C   0  0  0  0  0  1  0  0  0  0  0  0
  141.9360  132.8580   97.1430 C   0  0  0  0  0  2  0  0  0  0  0  0
  142.9720  133.6100   96.5140 O   0  0  0  0  0  0  0  0  0  0  0  0
  143.7000  132.9890   96.3320 H   0  0  0  0  0  0  0  0  0  0  0  0
  142.8380  132.3610   99.4590 C   0  0  1  0  0  3  0  0  0  0  0  0
  142.3300  130.9280   99.6760 C   0  0  0  0  0  2  0  0  0  0  0  0
  143.2440  130.2610  100.5510 O   0  0  0  0  0  0  0  0  0  0  0  0
  144.0810  130.1610  100.0620 H   0  0  0  0  0  0  0  0  0  0  0  0
  144.1070  132.2720   98.7920 O   0  0  0  0  0  0  0  0  0  0  0  0
  143.9400  132.6260   97.8940 H   0  0  0  0  0  0  0  0  0  0  0  0
  1  7  1  6  0  0  0
  1  2  1  0  0  0  0
  1 10  1  0  0  0  0
  2  3  2  0  0  0  0
  4  2  1  0  0  0  0
  5  4  1  0  0  0  0
  5  6  1  0  0  0  0
  8  7  1  0  0  0  0
  9  8  1  0  0  0  0
 10 11  1  6  0  0  0
 11 12  1  0  0  0  0
 13 12  1  0  0  0  0
 14 10  1  0  0  0  0
 15 14  1  0  0  0  0
M  END
>  <MODEL>
3

>  <REMARK>
 VINA RESULT:      -3.7      2.365      4.456
  9 active torsions:
  status: ('A' for Active; 'I' for Inactive)
    1  A    between atoms: C_2  and  O_3 
    2  A    between atoms: O_3  and  C_4 
    3  A    between atoms: C_4  and  C_6 
    4  A    between atoms: C_6  and  C_7 
    5  A    between atoms: C_6  and  C_9 
    6  A    between atoms: C_7  and  O_8 
    7  A    between atoms: C_9  and  C_10 
    8  A    between atoms: C_9  and  O_12 
    9  A    between atoms: C_10  and  O_11 

>  <TORSDO>
F 9

$$$$
../results/processed/lowest_conf/7XP6/docked/s3.pdbqt
 OpenBabel07252415363D

 15 14  0  0  1  0  0  0  0  0999 V2000
  133.4900  127.8700   94.3300 C   0  0  1  0  0  3  0  0  0  0  0  0
  132.0350  128.2000   94.1010 C   0  0  0  0  0  0  0  0  0  0  0  0
  131.5950  128.7360   93.0930 O   0  0  0  0  0  0  0  0  0  0  0  0
  131.2960  127.8800   95.1990 O   0  0  0  0  0  0  0  0  0  0  0  0
  129.9310  127.5480   94.9140 C   0  0  0  0  0  2  0  0  0  0  0  0
  129.2310  127.2570   96.2270 C   0  0  0  0  0  1  0  0  0  0  0  0
  134.1540  127.6360   92.9740 C   0  0  0  0  0  2  0  0  0  0  0  0
  133.5770  126.4890   92.3510 O   0  0  0  0  0  0  0  0  0  0  0  0
  133.6810  126.6090   91.3910 H   0  0  0  0  0  0  0  0  0  0  0  0
  134.1350  129.0270   95.0940 C   0  0  1  0  0  3  0  0  0  0  0  0
  134.3250  130.2800   94.2270 C   0  0  0  0  0  2  0  0  0  0  0  0
  133.6670  131.3720   94.8750 O   0  0  0  0  0  0  0  0  0  0  0  0
  133.9710  131.3750   95.8010 H   0  0  0  0  0  0  0  0  0  0  0  0
  133.3050  129.3950   96.2070 O   0  0  0  0  0  0  0  0  0  0  0  0
  133.3770  130.3710   96.2590 H   0  0  0  0  0  0  0  0  0  0  0  0
  1  7  1  6  0  0  0
  1 10  1  0  0  0  0
  2  1  1  0  0  0  0
  2  4  1  0  0  0  0
  3  2  2  0  0  0  0
  5  4  1  0  0  0  0
  5  6  1  0  0  0  0
  8  7  1  0  0  0  0
  9  8  1  0  0  0  0
 10 11  1  6  0  0  0
 10 14  1  0  0  0  0
 11 12  1  0  0  0  0
 12 13  1  0  0  0  0
 14 15  1  0  0  0  0
M  END
>  <MODEL>
4

>  <REMARK>
 VINA RESULT:      -3.7     11.298     13.291
  9 active torsions:
  status: ('A' for Active; 'I' for Inactive)
    1  A    between atoms: C_2  and  O_3 
    2  A    between atoms: O_3  and  C_4 
    3  A    between atoms: C_4  and  C_6 
    4  A    between atoms: C_6  and  C_7 
    5  A    between atoms: C_6  and  C_9 
    6  A    between atoms: C_7  and  O_8 
    7  A    between atoms: C_9  and  C_10 
    8  A    between atoms: C_9  and  O_12 
    9  A    between atoms: C_10  and  O_11 

>  <TORSDO>
F 9

$$$$
../results/processed/lowest_conf/7XP6/docked/s3.pdbqt
 OpenBabel07252415363D

 15 14  0  0  1  0  0  0  0  0999 V2000
  143.9690  134.9360   97.5560 C   0  0  1  0  0  3  0  0  0  0  0  0
  144.9200  136.0860   97.7830 C   0  0  0  0  0  0  0  0  0  0  0  0
  145.6660  136.5490   96.9290 O   0  0  0  0  0  0  0  0  0  0  0  0
  144.8810  136.4890   99.0830 O   0  0  0  0  0  0  0  0  0  0  0  0
  145.2480  137.8580   99.2870 C   0  0  0  0  0  2  0  0  0  0  0  0
  146.1040  137.9380  100.5360 C   0  0  0  0  0  1  0  0  0  0  0  0
  144.7490  133.6290   97.6800 C   0  0  0  0  0  2  0  0  0  0  0  0
  145.9150  133.8410   98.4750 O   0  0  0  0  0  0  0  0  0  0  0  0
  146.0270  134.8050   98.5590 H   0  0  0  0  0  0  0  0  0  0  0  0
  142.8400  135.0320   98.5830 C   0  0  1  0  0  3  0  0  0  0  0  0
  141.5570  134.3230   98.1240 C   0  0  0  0  0  2  0  0  0  0  0  0
  141.4470  133.0930   98.8470 O   0  0  0  0  0  0  0  0  0  0  0  0
  142.3410  132.7060   98.8820 H   0  0  0  0  0  0  0  0  0  0  0  0
  143.2530  134.4200   99.8160 O   0  0  0  0  0  0  0  0  0  0  0  0
  143.2150  133.4570   99.6390 H   0  0  0  0  0  0  0  0  0  0  0  0
  1  7  1  1  0  0  0
  1  2  1  0  0  0  0
  1 10  1  0  0  0  0
  2  4  1  0  0  0  0
  3  2  2  0  0  0  0
  4  5  1  0  0  0  0
  5  6  1  0  0  0  0
  7  8  1  0  0  0  0
  8  9  1  0  0  0  0
 10 11  1  6  0  0  0
 10 14  1  0  0  0  0
 11 12  1  0  0  0  0
 12 13  1  0  0  0  0
 15 14  1  0  0  0  0
M  END
>  <MODEL>
5

>  <REMARK>
 VINA RESULT:      -3.6      1.992      4.642
  9 active torsions:
  status: ('A' for Active; 'I' for Inactive)
    1  A    between atoms: C_2  and  O_3 
    2  A    between atoms: O_3  and  C_4 
    3  A    between atoms: C_4  and  C_6 
    4  A    between atoms: C_6  and  C_7 
    5  A    between atoms: C_6  and  C_9 
    6  A    between atoms: C_7  and  O_8 
    7  A    between atoms: C_9  and  C_10 
    8  A    between atoms: C_9  and  O_12 
    9  A    between atoms: C_10  and  O_11 

>  <TORSDO>
F 9

$$$$
../results/processed/lowest_conf/7XP6/docked/s3.pdbqt
 OpenBabel07252415363D

 15 14  0  0  1  0  0  0  0  0999 V2000
  133.5830  129.2400   93.0800 C   0  0  1  0  0  3  0  0  0  0  0  0
  133.2990  128.5870   94.4110 C   0  0  0  0  0  0  0  0  0  0  0  0
  134.1560  128.1330   95.1580 O   0  0  0  0  0  0  0  0  0  0  0  0
  131.9570  128.5120   94.6290 O   0  0  0  0  0  0  0  0  0  0  0  0
  131.5230  127.2740   95.2060 C   0  0  0  0  0  2  0  0  0  0  0  0
  130.0260  127.3580   95.4340 C   0  0  0  0  0  1  0  0  0  0  0  0
  134.1360  128.1830   92.1270 C   0  0  0  0  0  2  0  0  0  0  0  0
  133.5880  126.9070   92.4590 O   0  0  0  0  0  0  0  0  0  0  0  0
  133.1810  126.9960   93.3390 H   0  0  0  0  0  0  0  0  0  0  0  0
  132.2860  129.8620   92.5600 C   0  0  1  0  0  3  0  0  0  0  0  0
  132.5280  130.9210   91.4740 C   0  0  0  0  0  2  0  0  0  0  0  0
  131.9100  132.1390   91.8960 O   0  0  0  0  0  0  0  0  0  0  0  0
  132.6250  132.7290   92.1970 H   0  0  0  0  0  0  0  0  0  0  0  0
  131.4540  128.8400   91.9870 O   0  0  0  0  0  0  0  0  0  0  0  0
  132.0600  128.3150   91.4240 H   0  0  0  0  0  0  0  0  0  0  0  0
  1  7  1  6  0  0  0
  1  2  1  0  0  0  0
  2  4  1  0  0  0  0
  2  3  2  0  0  0  0
  4  5  1  0  0  0  0
  5  6  1  0  0  0  0
  7  8  1  0  0  0  0
  8  9  1  0  0  0  0
 10 11  1  6  0  0  0
 10  1  1  0  0  0  0
 11 12  1  0  0  0  0
 12 13  1  0  0  0  0
 14 10  1  0  0  0  0
 15 14  1  0  0  0  0
M  END
>  <MODEL>
6

>  <REMARK>
 VINA RESULT:      -3.6     12.206     13.606
  9 active torsions:
  status: ('A' for Active; 'I' for Inactive)
    1  A    between atoms: C_2  and  O_3 
    2  A    between atoms: O_3  and  C_4 
    3  A    between atoms: C_4  and  C_6 
    4  A    between atoms: C_6  and  C_7 
    5  A    between atoms: C_6  and  C_9 
    6  A    between atoms: C_7  and  O_8 
    7  A    between atoms: C_9  and  C_10 
    8  A    between atoms: C_9  and  O_12 
    9  A    between atoms: C_10  and  O_11 

>  <TORSDO>
F 9

$$$$
../results/processed/lowest_conf/7XP6/docked/s3.pdbqt
 OpenBabel07252415363D

 15 14  0  0  1  0  0  0  0  0999 V2000
  133.7080  128.0130   94.0100 C   0  0  1  0  0  3  0  0  0  0  0  0
  132.2200  128.2490   93.9180 C   0  0  0  0  0  0  0  0  0  0  0  0
  131.4490  128.2000   94.8670 O   0  0  0  0  0  0  0  0  0  0  0  0
  131.8490  128.4550   92.6230 O   0  0  0  0  0  0  0  0  0  0  0  0
  130.8740  129.4890   92.4480 C   0  0  0  0  0  2  0  0  0  0  0  0
  131.1940  130.2290   91.1630 C   0  0  0  0  0  1  0  0  0  0  0  0
  134.2200  127.5930   92.6340 C   0  0  0  0  0  2  0  0  0  0  0  0
  133.6830  126.3150   92.2950 O   0  0  0  0  0  0  0  0  0  0  0  0
  132.9320  126.4750   91.6960 H   0  0  0  0  0  0  0  0  0  0  0  0
  134.3720  129.2990   94.5030 C   0  0  1  0  0  3  0  0  0  0  0  0
  134.3870  130.4060   93.4390 C   0  0  0  0  0  2  0  0  0  0  0  0
  134.7840  131.6260   94.0730 O   0  0  0  0  0  0  0  0  0  0  0  0
  133.9670  132.0860   94.3360 H   0  0  0  0  0  0  0  0  0  0  0  0
  133.6600  129.8070   95.6430 O   0  0  0  0  0  0  0  0  0  0  0  0
  134.3380  129.8800   96.3460 H   0  0  0  0  0  0  0  0  0  0  0  0
  1  7  1  6  0  0  0
  1 10  1  0  0  0  0
  2  1  1  0  0  0  0
  2  3  2  0  0  0  0
  4  2  1  0  0  0  0
  5  4  1  0  0  0  0
  6  5  1  0  0  0  0
  8  7  1  0  0  0  0
  9  8  1  0  0  0  0
 10 11  1  6  0  0  0
 10 14  1  0  0  0  0
 11 12  1  0  0  0  0
 12 13  1  0  0  0  0
 14 15  1  0  0  0  0
M  END
>  <MODEL>
7

>  <REMARK>
 VINA RESULT:      -3.6     11.180     13.142
  9 active torsions:
  status: ('A' for Active; 'I' for Inactive)
    1  A    between atoms: C_2  and  O_3 
    2  A    between atoms: O_3  and  C_4 
    3  A    between atoms: C_4  and  C_6 
    4  A    between atoms: C_6  and  C_7 
    5  A    between atoms: C_6  and  C_9 
    6  A    between atoms: C_7  and  O_8 
    7  A    between atoms: C_9  and  C_10 
    8  A    between atoms: C_9  and  O_12 
    9  A    between atoms: C_10  and  O_11 

>  <TORSDO>
F 9

$$$$
../results/processed/lowest_conf/7XP6/docked/s3.pdbqt
 OpenBabel07252415363D

 15 14  0  0  1  0  0  0  0  0999 V2000
  133.4970  128.8410   93.2680 C   0  0  1  0  0  3  0  0  0  0  0  0
  133.2260  128.0480   94.5230 C   0  0  0  0  0  0  0  0  0  0  0  0
  132.2520  127.3260   94.6910 O   0  0  0  0  0  0  0  0  0  0  0  0
  134.1790  128.3010   95.4620 O   0  0  0  0  0  0  0  0  0  0  0  0
  134.3960  129.6940   95.7210 C   0  0  0  0  0  2  0  0  0  0  0  0
  134.7780  129.8500   97.1790 C   0  0  0  0  0  1  0  0  0  0  0  0
  134.0770  127.9010   92.2140 C   0  0  0  0  0  2  0  0  0  0  0  0
  133.6060  126.5740   92.4450 O   0  0  0  0  0  0  0  0  0  0  0  0
  134.3700  125.9810   92.3350 H   0  0  0  0  0  0  0  0  0  0  0  0
  132.1870  129.4830   92.8080 C   0  0  1  0  0  3  0  0  0  0  0  0
  132.4090  130.7400   91.9530 C   0  0  0  0  0  2  0  0  0  0  0  0
  133.4570  131.5060   92.5530 O   0  0  0  0  0  0  0  0  0  0  0  0
  133.2800  131.5240   93.5120 H   0  0  0  0  0  0  0  0  0  0  0  0
  131.4420  128.5470   92.0130 O   0  0  0  0  0  0  0  0  0  0  0  0
  131.3470  128.9830   91.1410 H   0  0  0  0  0  0  0  0  0  0  0  0
  1  7  1  6  0  0  0
  1  2  1  0  0  0  0
  2  3  2  0  0  0  0
  2  4  1  0  0  0  0
  4  5  1  0  0  0  0
  5  6  1  0  0  0  0
  7  8  1  0  0  0  0
  9  8  1  0  0  0  0
 10 11  1  6  0  0  0
 10  1  1  0  0  0  0
 11 12  1  0  0  0  0
 12 13  1  0  0  0  0
 14 10  1  0  0  0  0
 15 14  1  0  0  0  0
M  END
>  <MODEL>
8

>  <REMARK>
 VINA RESULT:      -3.5     10.871     12.902
  9 active torsions:
  status: ('A' for Active; 'I' for Inactive)
    1  A    between atoms: C_2  and  O_3 
    2  A    between atoms: O_3  and  C_4 
    3  A    between atoms: C_4  and  C_6 
    4  A    between atoms: C_6  and  C_7 
    5  A    between atoms: C_6  and  C_9 
    6  A    between atoms: C_7  and  O_8 
    7  A    between atoms: C_9  and  C_10 
    8  A    between atoms: C_9  and  O_12 
    9  A    between atoms: C_10  and  O_11 

>  <TORSDO>
F 9

$$$$
../results/processed/lowest_conf/7XP6/docked/s3.pdbqt
 OpenBabel07252415363D

 15 14  0  0  1  0  0  0  0  0999 V2000
  134.2720  128.9470   94.1100 C   0  0  1  0  0  3  0  0  0  0  0  0
  133.7900  129.9710   93.1100 C   0  0  0  0  0  0  0  0  0  0  0  0
  132.6570  130.4320   93.0810 O   0  0  0  0  0  0  0  0  0  0  0  0
  134.7710  130.2560   92.2090 O   0  0  0  0  0  0  0  0  0  0  0  0
  134.8410  131.6370   91.8330 C   0  0  0  0  0  2  0  0  0  0  0  0
  135.7170  132.3570   92.8390 C   0  0  0  0  0  1  0  0  0  0  0  0
  134.1340  129.5350   95.5120 C   0  0  0  0  0  2  0  0  0  0  0  0
  133.9010  130.9400   95.4210 O   0  0  0  0  0  0  0  0  0  0  0  0
  133.7020  131.1320   94.4880 H   0  0  0  0  0  0  0  0  0  0  0  0
  133.4430  127.6740   93.9360 C   0  0  1  0  0  3  0  0  0  0  0  0
  132.2610  127.5960   94.9140 C   0  0  0  0  0  2  0  0  0  0  0  0
  131.1110  128.1430   94.2630 O   0  0  0  0  0  0  0  0  0  0  0  0
  130.3800  128.1100   94.9080 H   0  0  0  0  0  0  0  0  0  0  0  0
  132.9050  127.6230   92.6050 O   0  0  0  0  0  0  0  0  0  0  0  0
  132.5530  128.5240   92.4460 H   0  0  0  0  0  0  0  0  0  0  0  0
  1  7  1  1  0  0  0
  2  1  1  0  0  0  0
  3  2  2  0  0  0  0
  4  2  1  0  0  0  0
  5  4  1  0  0  0  0
  5  6  1  0  0  0  0
  8  7  1  0  0  0  0
  9  8  1  0  0  0  0
 10  1  1  0  0  0  0
 10 11  1  1  0  0  0
 12 13  1  0  0  0  0
 12 11  1  0  0  0  0
 14 10  1  0  0  0  0
 15 14  1  0  0  0  0
M  END
>  <MODEL>
9

>  <REMARK>
 VINA RESULT:      -3.5     10.493     12.574
  9 active torsions:
  status: ('A' for Active; 'I' for Inactive)
    1  A    between atoms: C_2  and  O_3 
    2  A    between atoms: O_3  and  C_4 
    3  A    between atoms: C_4  and  C_6 
    4  A    between atoms: C_6  and  C_7 
    5  A    between atoms: C_6  and  C_9 
    6  A    between atoms: C_7  and  O_8 
    7  A    between atoms: C_9  and  C_10 
    8  A    between atoms: C_9  and  O_12 
    9  A    between atoms: C_10  and  O_11 

>  <TORSDO>
F 9

$$$$
