../results/processed/lowest_conf/7XP6/docked/s3c.pdbqt
 OpenBabel07252415373D

 21 21  0  0  1  0  0  0  0  0999 V2000
  144.3280  136.9480   98.3860 C   0  0  2  0  0  3  0  0  0  0  0  0
  142.8930  137.2510   97.9030 C   0  0  1  0  0  3  0  0  0  0  0  0
  142.0320  136.1790   98.5720 C   0  0  2  0  0  3  0  0  0  0  0  0
  142.9420  134.9580   98.5010 C   0  0  1  0  0  3  0  0  0  0  0  0
  144.2680  135.5320   98.9910 C   0  0  1  0  0  3  0  0  0  0  0  0
  144.7170  137.8510   99.4240 O   0  0  0  0  0  0  0  0  0  0  0  0
  146.0120  138.4390   99.2170 C   0  0  0  0  0  3  0  0  0  0  0  0
  145.7560  139.8680   98.7350 C   0  0  0  0  0  2  0  0  0  0  0  0
  144.5440  140.3590   99.3140 O   0  0  0  0  0  0  0  0  0  0  0  0
  144.7510  141.2510   99.6770 H   0  0  0  0  0  0  0  0  0  0  0  0
  146.7910  138.4190  100.5360 C   0  0  0  0  0  2  0  0  0  0  0  0
  146.8240  137.0930  101.0830 O   0  0  0  0  0  0  0  0  0  0  0  0
  147.2290  136.5300  100.3960 H   0  0  0  0  0  0  0  0  0  0  0  0
  142.4550  138.5730   98.2090 O   0  0  0  0  0  0  0  0  0  0  0  0
  142.0420  138.5150   99.0920 H   0  0  0  0  0  0  0  0  0  0  0  0
  145.3670  134.7260   98.5720 O   0  0  0  0  0  0  0  0  0  0  0  0
  146.0690  134.8720   99.2440 H   0  0  0  0  0  0  0  0  0  0  0  0
  140.8120  135.9820   97.8640 O   0  0  0  0  0  0  0  0  0  0  0  0
  140.2610  135.4250   98.4480 H   0  0  0  0  0  0  0  0  0  0  0  0
  142.4620  133.9080   99.3350 O   0  0  0  0  0  0  0  0  0  0  0  0
  141.5380  134.1440   99.5500 H   0  0  0  0  0  0  0  0  0  0  0  0
  1  5  1  0  0  0  0
  1  6  1  1  0  0  0
  2 14  1  1  0  0  0
  2  1  1  0  0  0  0
  2  3  1  0  0  0  0
  3 18  1  6  0  0  0
  4  3  1  0  0  0  0
  4  5  1  0  0  0  0
  4 20  1  1  0  0  0
  5 16  1  6  0  0  0
  7  6  1  0  0  0  0
  7 11  1  0  0  0  0
  8  7  1  0  0  0  0
  8  9  1  0  0  0  0
  9 10  1  0  0  0  0
 11 12  1  0  0  0  0
 13 12  1  0  0  0  0
 14 15  1  0  0  0  0
 16 17  1  0  0  0  0
 18 19  1  0  0  0  0
 20 21  1  0  0  0  0
M  END
>  <MODEL>
1

>  <REMARK>
 VINA RESULT:      -4.3      0.000      0.000
  10 active torsions:
  status: ('A' for Active; 'I' for Inactive)
    1  A    between atoms: O_1  and  C_2 
    2  A    between atoms: C_2  and  C_3 
    3  A    between atoms: C_3  and  O_4 
    4  A    between atoms: C_3  and  C_14 
    5  A    between atoms: O_4  and  C_5 
    6  A    between atoms: C_6  and  O_7 
    7  A    between atoms: C_8  and  O_9 
    8  A    between atoms: C_10  and  O_11 
    9  A    between atoms: C_12  and  O_13 
   10  A    between atoms: C_14  and  O_15 

>  <TORSDO>
F 10

$$$$
../results/processed/lowest_conf/7XP6/docked/s3c.pdbqt
 OpenBabel07252415373D

 21 21  0  0  1  0  0  0  0  0999 V2000
  141.9150  133.5850   97.1590 C   0  0  2  0  0  3  0  0  0  0  0  0
  142.0610  132.3430   98.0640 C   0  0  1  0  0  3  0  0  0  0  0  0
  143.3240  132.6130   98.8830 C   0  0  2  0  0  3  0  0  0  0  0  0
  144.2220  133.2900   97.8540 C   0  0  1  0  0  3  0  0  0  0  0  0
  143.2720  134.3120   97.2380 C   0  0  1  0  0  3  0  0  0  0  0  0
  140.9140  134.4700   97.6690 O   0  0  0  0  0  0  0  0  0  0  0  0
  140.0240  134.9710   96.6570 C   0  0  0  0  0  3  0  0  0  0  0  0
  139.0200  133.8500   96.3840 C   0  0  0  0  0  2  0  0  0  0  0  0
  138.4460  133.4100   97.6180 O   0  0  0  0  0  0  0  0  0  0  0  0
  138.8690  133.9440   98.3280 H   0  0  0  0  0  0  0  0  0  0  0  0
  139.3320  136.2350   97.1780 C   0  0  0  0  0  2  0  0  0  0  0  0
  137.9100  136.0470   97.2350 O   0  0  0  0  0  0  0  0  0  0  0  0
  137.6840  136.0080   98.1830 H   0  0  0  0  0  0  0  0  0  0  0  0
  140.9200  132.0960   98.8850 O   0  0  0  0  0  0  0  0  0  0  0  0
  140.6750  131.1650   98.7210 H   0  0  0  0  0  0  0  0  0  0  0  0
  143.7260  134.7320   95.9540 O   0  0  0  0  0  0  0  0  0  0  0  0
  144.5130  134.1750   95.7600 H   0  0  0  0  0  0  0  0  0  0  0  0
  143.8880  131.4010   99.3750 O   0  0  0  0  0  0  0  0  0  0  0  0
  143.8880  130.7880   98.6140 H   0  0  0  0  0  0  0  0  0  0  0  0
  145.3490  133.9010   98.4770 O   0  0  0  0  0  0  0  0  0  0  0  0
  145.2620  134.8570   98.2950 H   0  0  0  0  0  0  0  0  0  0  0  0
  1  5  1  0  0  0  0
  1  6  1  1  0  0  0
  1  2  1  0  0  0  0
  2  3  1  0  0  0  0
  2 14  1  1  0  0  0
  3 18  1  6  0  0  0
  4 20  1  1  0  0  0
  4  3  1  0  0  0  0
  5 16  1  6  0  0  0
  5  4  1  0  0  0  0
  7 11  1  0  0  0  0
  7  6  1  0  0  0  0
  8  7  1  0  0  0  0
  8  9  1  0  0  0  0
  9 10  1  0  0  0  0
 11 12  1  0  0  0  0
 12 13  1  0  0  0  0
 15 14  1  0  0  0  0
 17 16  1  0  0  0  0
 19 18  1  0  0  0  0
 21 20  1  0  0  0  0
M  END
>  <MODEL>
2

>  <REMARK>
 VINA RESULT:      -4.2      4.066      6.273
  10 active torsions:
  status: ('A' for Active; 'I' for Inactive)
    1  A    between atoms: O_1  and  C_2 
    2  A    between atoms: C_2  and  C_3 
    3  A    between atoms: C_3  and  O_4 
    4  A    between atoms: C_3  and  C_14 
    5  A    between atoms: O_4  and  C_5 
    6  A    between atoms: C_6  and  O_7 
    7  A    between atoms: C_8  and  O_9 
    8  A    between atoms: C_10  and  O_11 
    9  A    between atoms: C_12  and  O_13 
   10  A    between atoms: C_14  and  O_15 

>  <TORSDO>
F 10

$$$$
../results/processed/lowest_conf/7XP6/docked/s3c.pdbqt
 OpenBabel07252415373D

 21 21  0  0  1  0  0  0  0  0999 V2000
  141.1950  134.7590   97.7280 C   0  0  2  0  0  3  0  0  0  0  0  0
  142.2900  135.6990   98.2740 C   0  0  1  0  0  3  0  0  0  0  0  0
  143.4990  134.7900   98.4940 C   0  0  2  0  0  3  0  0  0  0  0  0
  142.8400  133.5150   99.0080 C   0  0  1  0  0  3  0  0  0  0  0  0
  141.7020  133.3310   98.0090 C   0  0  1  0  0  3  0  0  0  0  0  0
  141.0590  134.9030   96.3120 O   0  0  0  0  0  0  0  0  0  0  0  0
  139.6930  134.9900   95.8730 C   0  0  0  0  0  3  0  0  0  0  0  0
  139.3990  133.6800   95.1410 C   0  0  0  0  0  2  0  0  0  0  0  0
  138.1390  133.7760   94.4720 O   0  0  0  0  0  0  0  0  0  0  0  0
  137.6700  134.5450   94.8710 H   0  0  0  0  0  0  0  0  0  0  0  0
  138.7830  135.1720   97.0920 C   0  0  0  0  0  2  0  0  0  0  0  0
  138.0630  133.9630   97.3710 O   0  0  0  0  0  0  0  0  0  0  0  0
  138.3140  133.3330   96.6690 H   0  0  0  0  0  0  0  0  0  0  0  0
  142.5830  136.7970   97.4110 O   0  0  0  0  0  0  0  0  0  0  0  0
  143.2680  136.4710   96.7950 H   0  0  0  0  0  0  0  0  0  0  0  0
  140.6760  132.4960   98.5430 O   0  0  0  0  0  0  0  0  0  0  0  0
  139.8300  132.9230   98.2800 H   0  0  0  0  0  0  0  0  0  0  0  0
  144.4000  135.3500   99.4450 O   0  0  0  0  0  0  0  0  0  0  0  0
  145.2770  134.9860   99.2170 H   0  0  0  0  0  0  0  0  0  0  0  0
  143.7540  132.4220   98.9990 O   0  0  0  0  0  0  0  0  0  0  0  0
  144.2460  132.4980   98.1580 H   0  0  0  0  0  0  0  0  0  0  0  0
  1  6  1  6  0  0  0
  1  5  1  0  0  0  0
  1  2  1  0  0  0  0
  2 14  1  6  0  0  0
  2  3  1  0  0  0  0
  3  4  1  0  0  0  0
  3 18  1  1  0  0  0
  4 20  1  6  0  0  0
  5 16  1  1  0  0  0
  5  4  1  0  0  0  0
  7  6  1  0  0  0  0
  7 11  1  0  0  0  0
  8  7  1  0  0  0  0
  9 10  1  0  0  0  0
  9  8  1  0  0  0  0
 11 12  1  0  0  0  0
 13 12  1  0  0  0  0
 15 14  1  0  0  0  0
 17 16  1  0  0  0  0
 19 18  1  0  0  0  0
 21 20  1  0  0  0  0
M  END
>  <MODEL>
3

>  <REMARK>
 VINA RESULT:      -4.2      3.054      6.156
  10 active torsions:
  status: ('A' for Active; 'I' for Inactive)
    1  A    between atoms: O_1  and  C_2 
    2  A    between atoms: C_2  and  C_3 
    3  A    between atoms: C_3  and  O_4 
    4  A    between atoms: C_3  and  C_14 
    5  A    between atoms: O_4  and  C_5 
    6  A    between atoms: C_6  and  O_7 
    7  A    between atoms: C_8  and  O_9 
    8  A    between atoms: C_10  and  O_11 
    9  A    between atoms: C_12  and  O_13 
   10  A    between atoms: C_14  and  O_15 

>  <TORSDO>
F 10

$$$$
../results/processed/lowest_conf/7XP6/docked/s3c.pdbqt
 OpenBabel07252415373D

 21 21  0  0  1  0  0  0  0  0999 V2000
  142.8180  135.2320   98.4300 C   0  0  2  0  0  3  0  0  0  0  0  0
  141.8090  136.3990   98.4290 C   0  0  1  0  0  3  0  0  0  0  0  0
  142.6140  137.6000   97.9320 C   0  0  2  0  0  3  0  0  0  0  0  0
  143.9660  137.3640   98.5950 C   0  0  1  0  0  3  0  0  0  0  0  0
  144.2060  135.8880   98.2940 C   0  0  1  0  0  3  0  0  0  0  0  0
  142.6200  134.3870   97.2940 O   0  0  0  0  0  0  0  0  0  0  0  0
  142.3880  133.0100   97.6360 C   0  0  0  0  0  3  0  0  0  0  0  0
  142.3370  132.9570   99.1640 C   0  0  0  0  0  2  0  0  0  0  0  0
  141.4150  131.9440   99.5770 O   0  0  0  0  0  0  0  0  0  0  0  0
  140.7000  132.4040  100.0730 H   0  0  0  0  0  0  0  0  0  0  0  0
  141.0670  132.5530   97.0100 C   0  0  0  0  0  2  0  0  0  0  0  0
  139.9670  133.3050   97.5430 O   0  0  0  0  0  0  0  0  0  0  0  0
  139.2610  133.2600   96.8690 H   0  0  0  0  0  0  0  0  0  0  0  0
  140.6500  136.1520   97.6350 O   0  0  0  0  0  0  0  0  0  0  0  0
  140.9110  136.3630   96.7170 H   0  0  0  0  0  0  0  0  0  0  0  0
  145.1540  135.3230   99.1970 O   0  0  0  0  0  0  0  0  0  0  0  0
  145.7010  134.7140   98.6520 H   0  0  0  0  0  0  0  0  0  0  0  0
  142.0200  138.8270   98.3450 O   0  0  0  0  0  0  0  0  0  0  0  0
  142.7380  139.3320   98.7730 H   0  0  0  0  0  0  0  0  0  0  0  0
  144.9700  138.2050   98.0340 O   0  0  0  0  0  0  0  0  0  0  0  0
  145.1030  137.8800   97.1210 H   0  0  0  0  0  0  0  0  0  0  0  0
  1  6  1  6  0  0  0
  2 14  1  6  0  0  0
  2  1  1  0  0  0  0
  3 18  1  1  0  0  0
  3  2  1  0  0  0  0
  3  4  1  0  0  0  0
  4 20  1  6  0  0  0
  5  1  1  0  0  0  0
  5  4  1  0  0  0  0
  5 16  1  1  0  0  0
  6  7  1  0  0  0  0
  7  8  1  0  0  0  0
  8  9  1  0  0  0  0
  9 10  1  0  0  0  0
 11 12  1  0  0  0  0
 11  7  1  0  0  0  0
 13 12  1  0  0  0  0
 15 14  1  0  0  0  0
 17 16  1  0  0  0  0
 18 19  1  0  0  0  0
 21 20  1  0  0  0  0
M  END
>  <MODEL>
4

>  <REMARK>
 VINA RESULT:      -4.1      1.882      5.316
  10 active torsions:
  status: ('A' for Active; 'I' for Inactive)
    1  A    between atoms: O_1  and  C_2 
    2  A    between atoms: C_2  and  C_3 
    3  A    between atoms: C_3  and  O_4 
    4  A    between atoms: C_3  and  C_14 
    5  A    between atoms: O_4  and  C_5 
    6  A    between atoms: C_6  and  O_7 
    7  A    between atoms: C_8  and  O_9 
    8  A    between atoms: C_10  and  O_11 
    9  A    between atoms: C_12  and  O_13 
   10  A    between atoms: C_14  and  O_15 

>  <TORSDO>
F 10

$$$$
../results/processed/lowest_conf/7XP6/docked/s3c.pdbqt
 OpenBabel07252415373D

 21 21  0  0  1  0  0  0  0  0999 V2000
  144.4500  137.4120   98.1240 C   0  0  2  0  0  3  0  0  0  0  0  0
  145.5630  137.8570   99.0960 C   0  0  1  0  0  3  0  0  0  0  0  0
  145.0520  139.1720   99.6860 C   0  0  2  0  0  3  0  0  0  0  0  0
  144.3740  139.8120   98.4790 C   0  0  1  0  0  3  0  0  0  0  0  0
  143.5520  138.6500   97.9340 C   0  0  1  0  0  3  0  0  0  0  0  0
  143.6510  136.3780   98.7060 O   0  0  0  0  0  0  0  0  0  0  0  0
  143.4300  135.2620   97.8270 C   0  0  0  0  0  3  0  0  0  0  0  0
  144.8160  134.7930   97.3820 C   0  0  0  0  0  2  0  0  0  0  0  0
  145.5050  134.2110   98.4920 O   0  0  0  0  0  0  0  0  0  0  0  0
  146.4460  134.1150   98.2160 H   0  0  0  0  0  0  0  0  0  0  0  0
  142.6800  134.1640   98.5880 C   0  0  0  0  0  2  0  0  0  0  0  0
  143.0970  134.1240   99.9610 O   0  0  0  0  0  0  0  0  0  0  0  0
  142.4080  133.6210  100.4350 H   0  0  0  0  0  0  0  0  0  0  0  0
  145.8670  136.8900  100.1000 O   0  0  0  0  0  0  0  0  0  0  0  0
  146.8410  136.8160  100.1070 H   0  0  0  0  0  0  0  0  0  0  0  0
  143.2110  138.8550   96.5640 O   0  0  0  0  0  0  0  0  0  0  0  0
  143.4910  138.0340   96.1000 H   0  0  0  0  0  0  0  0  0  0  0  0
  146.1240  139.9660  100.1840 O   0  0  0  0  0  0  0  0  0  0  0  0
  146.5050  139.4530  100.9230 H   0  0  0  0  0  0  0  0  0  0  0  0
  143.5650  140.9170   98.8680 O   0  0  0  0  0  0  0  0  0  0  0  0
  144.1770  141.5610   99.2750 H   0  0  0  0  0  0  0  0  0  0  0  0
  1  6  1  1  0  0  0
  1  2  1  0  0  0  0
  2  3  1  0  0  0  0
  2 14  1  1  0  0  0
  3 18  1  6  0  0  0
  4 20  1  1  0  0  0
  4  3  1  0  0  0  0
  5 16  1  6  0  0  0
  5  1  1  0  0  0  0
  5  4  1  0  0  0  0
  7 11  1  0  0  0  0
  7  6  1  0  0  0  0
  8  7  1  0  0  0  0
  8  9  1  0  0  0  0
 10  9  1  0  0  0  0
 11 12  1  0  0  0  0
 12 13  1  0  0  0  0
 14 15  1  0  0  0  0
 17 16  1  0  0  0  0
 18 19  1  0  0  0  0
 20 21  1  0  0  0  0
M  END
>  <MODEL>
5

>  <REMARK>
 VINA RESULT:      -4.1      1.521      4.916
  10 active torsions:
  status: ('A' for Active; 'I' for Inactive)
    1  A    between atoms: O_1  and  C_2 
    2  A    between atoms: C_2  and  C_3 
    3  A    between atoms: C_3  and  O_4 
    4  A    between atoms: C_3  and  C_14 
    5  A    between atoms: O_4  and  C_5 
    6  A    between atoms: C_6  and  O_7 
    7  A    between atoms: C_8  and  O_9 
    8  A    between atoms: C_10  and  O_11 
    9  A    between atoms: C_12  and  O_13 
   10  A    between atoms: C_14  and  O_15 

>  <TORSDO>
F 10

$$$$
../results/processed/lowest_conf/7XP6/docked/s3c.pdbqt
 OpenBabel07252415373D

 21 21  0  0  1  0  0  0  0  0999 V2000
  143.7770  137.0240   98.5860 C   0  0  2  0  0  3  0  0  0  0  0  0
  143.0070  138.3230   98.2620 C   0  0  1  0  0  3  0  0  0  0  0  0
  144.1000  139.3700   98.0420 C   0  0  2  0  0  3  0  0  0  0  0  0
  145.1250  138.9770   99.0990 C   0  0  1  0  0  3  0  0  0  0  0  0
  145.2200  137.4690   98.8930 C   0  0  1  0  0  3  0  0  0  0  0  0
  143.8180  136.1610   97.4470 O   0  0  0  0  0  0  0  0  0  0  0  0
  143.4130  134.8120   97.7360 C   0  0  0  0  0  3  0  0  0  0  0  0
  144.6430  133.9380   97.4860 C   0  0  0  0  0  2  0  0  0  0  0  0
  145.5540  134.0670   98.5810 O   0  0  0  0  0  0  0  0  0  0  0  0
  146.4590  134.0370   98.1950 H   0  0  0  0  0  0  0  0  0  0  0  0
  142.9470  134.7280   99.1920 C   0  0  0  0  0  2  0  0  0  0  0  0
  143.0050  133.3740   99.6650 O   0  0  0  0  0  0  0  0  0  0  0  0
  142.5640  133.3760  100.5360 H   0  0  0  0  0  0  0  0  0  0  0  0
  142.1310  138.2040   97.1420 O   0  0  0  0  0  0  0  0  0  0  0  0
  142.0080  137.2440   97.0060 H   0  0  0  0  0  0  0  0  0  0  0  0
  145.7420  136.8200  100.0510 O   0  0  0  0  0  0  0  0  0  0  0  0
  145.8070  137.5230  100.7360 H   0  0  0  0  0  0  0  0  0  0  0  0
  143.5990  140.6880   98.2420 O   0  0  0  0  0  0  0  0  0  0  0  0
  144.0840  141.0340   99.0160 H   0  0  0  0  0  0  0  0  0  0  0  0
  146.3690  139.6360   98.8810 O   0  0  0  0  0  0  0  0  0  0  0  0
  146.2020  140.2830   98.1680 H   0  0  0  0  0  0  0  0  0  0  0  0
  1  6  1  6  0  0  0
  1  5  1  0  0  0  0
  2 14  1  6  0  0  0
  2  1  1  0  0  0  0
  3 18  1  1  0  0  0
  3  2  1  0  0  0  0
  3  4  1  0  0  0  0
  4 20  1  6  0  0  0
  5  4  1  0  0  0  0
  5 16  1  1  0  0  0
  6  7  1  0  0  0  0
  7 11  1  0  0  0  0
  8  7  1  0  0  0  0
  8  9  1  0  0  0  0
 10  9  1  0  0  0  0
 11 12  1  0  0  0  0
 12 13  1  0  0  0  0
 15 14  1  0  0  0  0
 16 17  1  0  0  0  0
 18 19  1  0  0  0  0
 21 20  1  0  0  0  0
M  END
>  <MODEL>
6

>  <REMARK>
 VINA RESULT:      -4.1      1.465      4.458
  10 active torsions:
  status: ('A' for Active; 'I' for Inactive)
    1  A    between atoms: O_1  and  C_2 
    2  A    between atoms: C_2  and  C_3 
    3  A    between atoms: C_3  and  O_4 
    4  A    between atoms: C_3  and  C_14 
    5  A    between atoms: O_4  and  C_5 
    6  A    between atoms: C_6  and  O_7 
    7  A    between atoms: C_8  and  O_9 
    8  A    between atoms: C_10  and  O_11 
    9  A    between atoms: C_12  and  O_13 
   10  A    between atoms: C_14  and  O_15 

>  <TORSDO>
F 10

$$$$
../results/processed/lowest_conf/7XP6/docked/s3c.pdbqt
 OpenBabel07252415373D

 21 21  0  0  1  0  0  0  0  0999 V2000
  142.4620  134.7410   99.2240 C   0  0  2  0  0  3  0  0  0  0  0  0
  142.2760  133.2280   98.9770 C   0  0  1  0  0  3  0  0  0  0  0  0
  141.9130  133.1250   97.4950 C   0  0  2  0  0  3  0  0  0  0  0  0
  141.0260  134.3500   97.3050 C   0  0  1  0  0  3  0  0  0  0  0  0
  141.8470  135.4360   97.9930 C   0  0  1  0  0  3  0  0  0  0  0  0
  143.8490  135.0810   99.2700 O   0  0  0  0  0  0  0  0  0  0  0  0
  144.3150  135.7500   98.0860 C   0  0  0  0  0  3  0  0  0  0  0  0
  145.0360  137.0100   98.5680 C   0  0  0  0  0  2  0  0  0  0  0  0
  145.7090  136.7370   99.8000 O   0  0  0  0  0  0  0  0  0  0  0  0
  146.4920  137.3330   99.8270 H   0  0  0  0  0  0  0  0  0  0  0  0
  145.2590  134.8180   97.3200 C   0  0  0  0  0  2  0  0  0  0  0  0
  145.8500  133.8560   98.2060 O   0  0  0  0  0  0  0  0  0  0  0  0
  146.8150  133.9280   98.0730 H   0  0  0  0  0  0  0  0  0  0  0  0
  143.4220  132.4480   99.3140 O   0  0  0  0  0  0  0  0  0  0  0  0
  143.2330  132.0730  100.1960 H   0  0  0  0  0  0  0  0  0  0  0  0
  141.0310  136.5460   98.3610 O   0  0  0  0  0  0  0  0  0  0  0  0
  141.0320  137.1410   97.5780 H   0  0  0  0  0  0  0  0  0  0  0  0
  141.2200  131.9120   97.2170 O   0  0  0  0  0  0  0  0  0  0  0  0
  140.2720  132.1460   97.2310 H   0  0  0  0  0  0  0  0  0  0  0  0
  140.8110  134.6230   95.9240 O   0  0  0  0  0  0  0  0  0  0  0  0
  139.8430  134.5830   95.7960 H   0  0  0  0  0  0  0  0  0  0  0  0
  1  6  1  6  0  0  0
  2  1  1  0  0  0  0
  2 14  1  6  0  0  0
  3 18  1  1  0  0  0
  3  2  1  0  0  0  0
  4 20  1  6  0  0  0
  4  3  1  0  0  0  0
  4  5  1  0  0  0  0
  5 16  1  1  0  0  0
  5  1  1  0  0  0  0
  7  8  1  0  0  0  0
  7  6  1  0  0  0  0
  8  9  1  0  0  0  0
  9 10  1  0  0  0  0
 11  7  1  0  0  0  0
 11 12  1  0  0  0  0
 13 12  1  0  0  0  0
 14 15  1  0  0  0  0
 17 16  1  0  0  0  0
 18 19  1  0  0  0  0
 21 20  1  0  0  0  0
M  END
>  <MODEL>
7

>  <REMARK>
 VINA RESULT:      -4.1      1.992      3.933
  10 active torsions:
  status: ('A' for Active; 'I' for Inactive)
    1  A    between atoms: O_1  and  C_2 
    2  A    between atoms: C_2  and  C_3 
    3  A    between atoms: C_3  and  O_4 
    4  A    between atoms: C_3  and  C_14 
    5  A    between atoms: O_4  and  C_5 
    6  A    between atoms: C_6  and  O_7 
    7  A    between atoms: C_8  and  O_9 
    8  A    between atoms: C_10  and  O_11 
    9  A    between atoms: C_12  and  O_13 
   10  A    between atoms: C_14  and  O_15 

>  <TORSDO>
F 10

$$$$
../results/processed/lowest_conf/7XP6/docked/s3c.pdbqt
 OpenBabel07252415373D

 21 21  0  0  1  0  0  0  0  0999 V2000
  133.3090  130.3970   92.4510 C   0  0  2  0  0  3  0  0  0  0  0  0
  133.6590  128.9710   92.9280 C   0  0  1  0  0  3  0  0  0  0  0  0
  133.6060  129.0540   94.4530 C   0  0  2  0  0  3  0  0  0  0  0  0
  134.1970  130.4360   94.7110 C   0  0  1  0  0  3  0  0  0  0  0  0
  133.4370  131.2900   93.7010 C   0  0  1  0  0  3  0  0  0  0  0  0
  131.9540  130.4660   92.0030 O   0  0  0  0  0  0  0  0  0  0  0  0
  131.5800  131.7610   91.5020 C   0  0  0  0  0  3  0  0  0  0  0  0
  132.0970  131.8230   90.0640 C   0  0  0  0  0  2  0  0  0  0  0  0
  131.8950  133.1380   89.5380 O   0  0  0  0  0  0  0  0  0  0  0  0
  131.1950  133.5540   90.0920 H   0  0  0  0  0  0  0  0  0  0  0  0
  130.0560  131.9020   91.5610 C   0  0  0  0  0  2  0  0  0  0  0  0
  129.6860  133.0920   92.2730 O   0  0  0  0  0  0  0  0  0  0  0  0
  130.1750  133.8220   91.8470 H   0  0  0  0  0  0  0  0  0  0  0  0
  132.7920  127.9660   92.4050 O   0  0  0  0  0  0  0  0  0  0  0  0
  133.1350  127.7610   91.5130 H   0  0  0  0  0  0  0  0  0  0  0  0
  134.1340  132.5020   93.4210 O   0  0  0  0  0  0  0  0  0  0  0  0
  133.5670  132.9870   92.7800 H   0  0  0  0  0  0  0  0  0  0  0  0
  134.3790  128.0190   95.0540 O   0  0  0  0  0  0  0  0  0  0  0  0
  133.9130  127.1880   94.8340 H   0  0  0  0  0  0  0  0  0  0  0  0
  133.9720  130.8510   96.0550 O   0  0  0  0  0  0  0  0  0  0  0  0
  134.7120  131.4510   96.2720 H   0  0  0  0  0  0  0  0  0  0  0  0
  1  6  1  1  0  0  0
  1  2  1  0  0  0  0
  1  5  1  0  0  0  0
  2 14  1  6  0  0  0
  2  3  1  0  0  0  0
  3  4  1  0  0  0  0
  3 18  1  1  0  0  0
  4 20  1  1  0  0  0
  5 16  1  6  0  0  0
  5  4  1  0  0  0  0
  7 11  1  0  0  0  0
  7  6  1  0  0  0  0
  8  7  1  0  0  0  0
  9  8  1  0  0  0  0
  9 10  1  0  0  0  0
 11 12  1  0  0  0  0
 13 12  1  0  0  0  0
 15 14  1  0  0  0  0
 17 16  1  0  0  0  0
 19 18  1  0  0  0  0
 20 21  1  0  0  0  0
M  END
>  <MODEL>
8

>  <REMARK>
 VINA RESULT:      -4.0     12.741     15.062
  10 active torsions:
  status: ('A' for Active; 'I' for Inactive)
    1  A    between atoms: O_1  and  C_2 
    2  A    between atoms: C_2  and  C_3 
    3  A    between atoms: C_3  and  O_4 
    4  A    between atoms: C_3  and  C_14 
    5  A    between atoms: O_4  and  C_5 
    6  A    between atoms: C_6  and  O_7 
    7  A    between atoms: C_8  and  O_9 
    8  A    between atoms: C_10  and  O_11 
    9  A    between atoms: C_12  and  O_13 
   10  A    between atoms: C_14  and  O_15 

>  <TORSDO>
F 10

$$$$
../results/processed/lowest_conf/7XP6/docked/s3c.pdbqt
 OpenBabel07252415373D

 21 21  0  0  1  0  0  0  0  0999 V2000
  141.7370  134.6610   98.2320 C   0  0  2  0  0  3  0  0  0  0  0  0
  142.7110  134.0980   99.2890 C   0  0  1  0  0  3  0  0  0  0  0  0
  142.7930  132.6040   98.9760 C   0  0  2  0  0  3  0  0  0  0  0  0
  141.3550  132.2890   98.5810 C   0  0  1  0  0  3  0  0  0  0  0  0
  141.0410  133.4300   97.6190 C   0  0  1  0  0  3  0  0  0  0  0  0
  142.4510  135.3250   97.1860 O   0  0  0  0  0  0  0  0  0  0  0  0
  142.0250  136.6820   96.9740 C   0  0  0  0  0  3  0  0  0  0  0  0
  140.9030  136.9360   97.9830 C   0  0  0  0  0  2  0  0  0  0  0  0
  141.0190  138.2630   98.5040 O   0  0  0  0  0  0  0  0  0  0  0  0
  141.8390  138.2770   99.0490 H   0  0  0  0  0  0  0  0  0  0  0  0
  143.2120  137.6230   97.2000 C   0  0  0  0  0  2  0  0  0  0  0  0
  143.7350  137.4680   98.5270 O   0  0  0  0  0  0  0  0  0  0  0  0
  143.2960  136.6780   98.8980 H   0  0  0  0  0  0  0  0  0  0  0  0
  143.9910  134.7290   99.2810 O   0  0  0  0  0  0  0  0  0  0  0  0
  143.9540  135.4050   99.9850 H   0  0  0  0  0  0  0  0  0  0  0  0
  139.6350  133.6240   97.4870 O   0  0  0  0  0  0  0  0  0  0  0  0
  139.5340  134.4390   96.9460 H   0  0  0  0  0  0  0  0  0  0  0  0
  143.2120  131.8600  100.1170 O   0  0  0  0  0  0  0  0  0  0  0  0
  142.5830  132.0970  100.8260 H   0  0  0  0  0  0  0  0  0  0  0  0
  141.2580  131.0100   97.9610 O   0  0  0  0  0  0  0  0  0  0  0  0
  141.4160  131.1680   97.0090 H   0  0  0  0  0  0  0  0  0  0  0  0
  1  6  1  6  0  0  0
  1  2  1  0  0  0  0
  2 14  1  6  0  0  0
  3  2  1  0  0  0  0
  3 18  1  1  0  0  0
  4 20  1  6  0  0  0
  4  3  1  0  0  0  0
  5 16  1  1  0  0  0
  5  1  1  0  0  0  0
  5  4  1  0  0  0  0
  7  6  1  0  0  0  0
  7 11  1  0  0  0  0
  7  8  1  0  0  0  0
  8  9  1  0  0  0  0
  9 10  1  0  0  0  0
 11 12  1  0  0  0  0
 12 13  1  0  0  0  0
 14 15  1  0  0  0  0
 17 16  1  0  0  0  0
 18 19  1  0  0  0  0
 21 20  1  0  0  0  0
M  END
>  <MODEL>
9

>  <REMARK>
 VINA RESULT:      -4.0      2.608      4.384
  10 active torsions:
  status: ('A' for Active; 'I' for Inactive)
    1  A    between atoms: O_1  and  C_2 
    2  A    between atoms: C_2  and  C_3 
    3  A    between atoms: C_3  and  O_4 
    4  A    between atoms: C_3  and  C_14 
    5  A    between atoms: O_4  and  C_5 
    6  A    between atoms: C_6  and  O_7 
    7  A    between atoms: C_8  and  O_9 
    8  A    between atoms: C_10  and  O_11 
    9  A    between atoms: C_12  and  O_13 
   10  A    between atoms: C_14  and  O_15 

>  <TORSDO>
F 10

$$$$
