../results/processed/lowest_conf/7XP6/docked/s4.pdbqt
 OpenBabel07252415363D

 14 14  0  0  1  0  0  0  0  0999 V2000
  139.9390  139.2560  107.8330 C   0  0  0  0  0  2  0  0  0  0  0  0
  138.4990  138.8550  108.1820 C   0  0  2  0  0  3  0  0  0  0  0  0
  138.4580  137.7020  109.1980 C   0  0  1  0  0  3  0  0  0  0  0  0
  139.6350  137.8070  110.1570 C   0  0  1  0  0  3  0  0  0  0  0  0
  140.9520  137.7160  109.3560 C   0  0  1  0  0  3  0  0  0  0  0  0
  140.8530  138.1690  108.0100 O   0  0  0  0  0  0  0  0  0  0  0  0
  137.7930  138.4420  107.0020 O   0  0  0  0  0  0  0  0  0  0  0  0
  136.8460  138.4550  107.2380 H   0  0  0  0  0  0  0  0  0  0  0  0
  137.2170  137.7620  109.9160 O   0  0  0  0  0  0  0  0  0  0  0  0
  137.4500  138.0750  110.8140 H   0  0  0  0  0  0  0  0  0  0  0  0
  139.5330  139.0710  110.8520 O   0  0  0  0  0  0  0  0  0  0  0  0
  138.8460  139.5660  110.3530 H   0  0  0  0  0  0  0  0  0  0  0  0
  141.9490  138.4750  110.0330 O   0  0  0  0  0  0  0  0  0  0  0  0
  142.0200  139.2950  109.5120 H   0  0  0  0  0  0  0  0  0  0  0  0
  1  6  1  0  0  0  0
  1  2  1  0  0  0  0
  2  7  1  6  0  0  0
  2  3  1  0  0  0  0
  3  9  1  1  0  0  0
  3  4  1  0  0  0  0
  4 11  1  6  0  0  0
  5 13  1  1  0  0  0
  5  4  1  0  0  0  0
  6  5  1  0  0  0  0
  7  8  1  0  0  0  0
  9 10  1  0  0  0  0
 12 11  1  0  0  0  0
 14 13  1  0  0  0  0
M  END
>  <MODEL>
1

>  <REMARK>
 VINA RESULT:      -5.5      0.000      0.000
  4 active torsions:
  status: ('A' for Active; 'I' for Inactive)
    1  A    between atoms: C_2  and  O_10 
    2  A    between atoms: C_3  and  O_9 
    3  A    between atoms: C_4  and  O_8 
    4  A    between atoms: C_5  and  O_7 

>  <TORSDO>
F 4

$$$$
../results/processed/lowest_conf/7XP6/docked/s4.pdbqt
 OpenBabel07252415363D

 14 14  0  0  1  0  0  0  0  0999 V2000
  139.7230  137.9510  110.6940 C   0  0  0  0  0  2  0  0  0  0  0  0
  141.0440  138.4380  110.0800 C   0  0  2  0  0  3  0  0  0  0  0  0
  141.0580  138.2690  108.5520 C   0  0  1  0  0  3  0  0  0  0  0  0
  139.6590  138.4730  107.9890 C   0  0  1  0  0  3  0  0  0  0  0  0
  138.7090  137.4170  108.5960 C   0  0  1  0  0  3  0  0  0  0  0  0
  139.0950  136.9520  109.8840 O   0  0  0  0  0  0  0  0  0  0  0  0
  142.1510  137.7050  110.6260 O   0  0  0  0  0  0  0  0  0  0  0  0
  142.8640  137.7630  109.9610 H   0  0  0  0  0  0  0  0  0  0  0  0
  141.9700  139.2240  107.9900 O   0  0  0  0  0  0  0  0  0  0  0  0
  142.4920  138.7260  107.3270 H   0  0  0  0  0  0  0  0  0  0  0  0
  139.2330  139.8130  108.3260 O   0  0  0  0  0  0  0  0  0  0  0  0
  138.3260  139.8800  107.9530 H   0  0  0  0  0  0  0  0  0  0  0  0
  137.4000  137.9730  108.6710 O   0  0  0  0  0  0  0  0  0  0  0  0
  137.0600  137.6680  109.5310 H   0  0  0  0  0  0  0  0  0  0  0  0
  2  7  1  1  0  0  0
  2  1  1  0  0  0  0
  3  9  1  6  0  0  0
  3  2  1  0  0  0  0
  4 11  1  1  0  0  0
  4  3  1  0  0  0  0
  4  5  1  0  0  0  0
  5 13  1  1  0  0  0
  5  6  1  0  0  0  0
  6  1  1  0  0  0  0
  8  7  1  0  0  0  0
 10  9  1  0  0  0  0
 12 11  1  0  0  0  0
 13 14  1  0  0  0  0
M  END
>  <MODEL>
2

>  <REMARK>
 VINA RESULT:      -4.8      1.347      3.709
  4 active torsions:
  status: ('A' for Active; 'I' for Inactive)
    1  A    between atoms: C_2  and  O_10 
    2  A    between atoms: C_3  and  O_9 
    3  A    between atoms: C_4  and  O_8 
    4  A    between atoms: C_5  and  O_7 

>  <TORSDO>
F 4

$$$$
../results/processed/lowest_conf/7XP6/docked/s4.pdbqt
 OpenBabel07252415363D

 14 14  0  0  1  0  0  0  0  0999 V2000
  140.0150  138.6230  107.4530 C   0  0  0  0  0  2  0  0  0  0  0  0
  141.2040  138.3020  108.3700 C   0  0  2  0  0  3  0  0  0  0  0  0
  140.7700  138.1670  109.8390 C   0  0  1  0  0  3  0  0  0  0  0  0
  139.3690  137.5790  109.9210 C   0  0  1  0  0  3  0  0  0  0  0  0
  138.3810  138.5200  109.1960 C   0  0  1  0  0  3  0  0  0  0  0  0
  138.9650  139.2960  108.1560 O   0  0  0  0  0  0  0  0  0  0  0  0
  142.1960  139.3360  108.2850 O   0  0  0  0  0  0  0  0  0  0  0  0
  142.1910  139.7830  109.1530 H   0  0  0  0  0  0  0  0  0  0  0  0
  141.7100  137.3250  110.5220 O   0  0  0  0  0  0  0  0  0  0  0  0
  142.5510  137.8280  110.5350 H   0  0  0  0  0  0  0  0  0  0  0  0
  139.3970  136.2730  109.3000 O   0  0  0  0  0  0  0  0  0  0  0  0
  138.5940  136.2570  108.7320 H   0  0  0  0  0  0  0  0  0  0  0  0
  137.3210  137.7370  108.6570 O   0  0  0  0  0  0  0  0  0  0  0  0
  137.7490  137.1980  107.9670 H   0  0  0  0  0  0  0  0  0  0  0  0
  1  6  1  0  0  0  0
  1  2  1  0  0  0  0
  2  7  1  1  0  0  0
  2  3  1  0  0  0  0
  3  4  1  0  0  0  0
  3  9  1  1  0  0  0
  4 11  1  6  0  0  0
  5 13  1  6  0  0  0
  5  4  1  0  0  0  0
  6  5  1  0  0  0  0
  7  8  1  0  0  0  0
  9 10  1  0  0  0  0
 12 11  1  0  0  0  0
 14 13  1  0  0  0  0
M  END
>  <MODEL>
3

>  <REMARK>
 VINA RESULT:      -4.2      1.434      3.212
  4 active torsions:
  status: ('A' for Active; 'I' for Inactive)
    1  A    between atoms: C_2  and  O_10 
    2  A    between atoms: C_3  and  O_9 
    3  A    between atoms: C_4  and  O_8 
    4  A    between atoms: C_5  and  O_7 

>  <TORSDO>
F 4

$$$$
../results/processed/lowest_conf/7XP6/docked/s4.pdbqt
 OpenBabel07252415363D

 14 14  0  0  1  0  0  0  0  0999 V2000
  134.0950  129.2600   95.2920 C   0  0  0  0  0  2  0  0  0  0  0  0
  133.7300  130.4050   94.3360 C   0  0  2  0  0  3  0  0  0  0  0  0
  133.3740  129.8840   92.9330 C   0  0  1  0  0  3  0  0  0  0  0  0
  132.6940  128.5270   93.0340 C   0  0  1  0  0  3  0  0  0  0  0  0
  133.6590  127.5250   93.7060 C   0  0  1  0  0  3  0  0  0  0  0  0
  134.6020  128.1200   94.5900 O   0  0  0  0  0  0  0  0  0  0  0  0
  134.8260  131.3240   94.2120 O   0  0  0  0  0  0  0  0  0  0  0  0
  134.9710  131.6890   95.1060 H   0  0  0  0  0  0  0  0  0  0  0  0
  132.5100  130.8340   92.2940 O   0  0  0  0  0  0  0  0  0  0  0  0
  132.4250  131.5780   92.9260 H   0  0  0  0  0  0  0  0  0  0  0  0
  131.4870  128.6900   93.8130 O   0  0  0  0  0  0  0  0  0  0  0  0
  131.5740  128.0310   94.5370 H   0  0  0  0  0  0  0  0  0  0  0  0
  132.8900  126.5620   94.4200 O   0  0  0  0  0  0  0  0  0  0  0  0
  132.4690  127.0740   95.1340 H   0  0  0  0  0  0  0  0  0  0  0  0
  2  7  1  6  0  0  0
  2  1  1  0  0  0  0
  3  9  1  1  0  0  0
  3  4  1  0  0  0  0
  3  2  1  0  0  0  0
  4  5  1  0  0  0  0
  4 11  1  1  0  0  0
  5 13  1  1  0  0  0
  5  6  1  0  0  0  0
  6  1  1  0  0  0  0
  7  8  1  0  0  0  0
  9 10  1  0  0  0  0
 11 12  1  0  0  0  0
 13 14  1  0  0  0  0
M  END
>  <MODEL>
4

>  <REMARK>
 VINA RESULT:      -4.1     17.499     19.007
  4 active torsions:
  status: ('A' for Active; 'I' for Inactive)
    1  A    between atoms: C_2  and  O_10 
    2  A    between atoms: C_3  and  O_9 
    3  A    between atoms: C_4  and  O_8 
    4  A    between atoms: C_5  and  O_7 

>  <TORSDO>
F 4

$$$$
../results/processed/lowest_conf/7XP6/docked/s4.pdbqt
 OpenBabel07252415363D

 14 14  0  0  1  0  0  0  0  0999 V2000
  132.5810  128.8760   92.5080 C   0  0  0  0  0  2  0  0  0  0  0  0
  133.3870  130.1000   92.9670 C   0  0  2  0  0  3  0  0  0  0  0  0
  133.5700  130.1210   94.4940 C   0  0  1  0  0  3  0  0  0  0  0  0
  133.6820  128.7010   95.0290 C   0  0  1  0  0  3  0  0  0  0  0  0
  132.3850  127.9300   94.6940 C   0  0  1  0  0  3  0  0  0  0  0  0
  131.7060  128.3970   93.5350 O   0  0  0  0  0  0  0  0  0  0  0  0
  132.7250  131.3120   92.5740 O   0  0  0  0  0  0  0  0  0  0  0  0
  132.0670  131.4960   93.2720 H   0  0  0  0  0  0  0  0  0  0  0  0
  134.7520  130.8710   94.8070 O   0  0  0  0  0  0  0  0  0  0  0  0
  135.0950  130.4830   95.6380 H   0  0  0  0  0  0  0  0  0  0  0  0
  134.8320  128.0810   94.4090 O   0  0  0  0  0  0  0  0  0  0  0  0
  134.6900  128.2150   93.4460 H   0  0  0  0  0  0  0  0  0  0  0  0
  132.7070  126.5520   94.5270 O   0  0  0  0  0  0  0  0  0  0  0  0
  133.5050  126.5600   93.9690 H   0  0  0  0  0  0  0  0  0  0  0  0
  1  2  1  0  0  0  0
  1  6  1  0  0  0  0
  2  7  1  1  0  0  0
  2  3  1  0  0  0  0
  3  9  1  6  0  0  0
  3  4  1  0  0  0  0
  4 11  1  6  0  0  0
  5 13  1  6  0  0  0
  5  4  1  0  0  0  0
  6  5  1  0  0  0  0
  7  8  1  0  0  0  0
  9 10  1  0  0  0  0
 12 11  1  0  0  0  0
 14 13  1  0  0  0  0
M  END
>  <MODEL>
5

>  <REMARK>
 VINA RESULT:      -4.0     17.485     18.964
  4 active torsions:
  status: ('A' for Active; 'I' for Inactive)
    1  A    between atoms: C_2  and  O_10 
    2  A    between atoms: C_3  and  O_9 
    3  A    between atoms: C_4  and  O_8 
    4  A    between atoms: C_5  and  O_7 

>  <TORSDO>
F 4

$$$$
../results/processed/lowest_conf/7XP6/docked/s4.pdbqt
 OpenBabel07252415363D

 14 14  0  0  1  0  0  0  0  0999 V2000
  143.9690  133.7570   96.9810 C   0  0  0  0  0  2  0  0  0  0  0  0
  145.0320  134.5500   97.7550 C   0  0  2  0  0  3  0  0  0  0  0  0
  144.4080  135.7050   98.5560 C   0  0  1  0  0  3  0  0  0  0  0  0
  143.0210  135.3160   99.0470 C   0  0  1  0  0  3  0  0  0  0  0  0
  142.1200  135.0120   97.8300 C   0  0  1  0  0  3  0  0  0  0  0  0
  142.8210  134.5570   96.6780 O   0  0  0  0  0  0  0  0  0  0  0  0
  146.0040  135.0990   96.8530 O   0  0  0  0  0  0  0  0  0  0  0  0
  146.1690  136.0120   97.1600 H   0  0  0  0  0  0  0  0  0  0  0  0
  145.2660  136.0150   99.6640 O   0  0  0  0  0  0  0  0  0  0  0  0
  146.1710  135.7930   99.3640 H   0  0  0  0  0  0  0  0  0  0  0  0
  143.1590  134.1540   99.8960 O   0  0  0  0  0  0  0  0  0  0  0  0
  144.1280  133.9850   99.9210 H   0  0  0  0  0  0  0  0  0  0  0  0
  141.1580  134.0330   98.2100 O   0  0  0  0  0  0  0  0  0  0  0  0
  140.3050  134.4210   97.9450 H   0  0  0  0  0  0  0  0  0  0  0  0
  1  2  1  0  0  0  0
  2  7  1  6  0  0  0
  2  3  1  0  0  0  0
  3  4  1  0  0  0  0
  3  9  1  1  0  0  0
  4 11  1  1  0  0  0
  5 13  1  1  0  0  0
  5  4  1  0  0  0  0
  6  1  1  0  0  0  0
  6  5  1  0  0  0  0
  7  8  1  0  0  0  0
 10  9  1  0  0  0  0
 11 12  1  0  0  0  0
 14 13  1  0  0  0  0
M  END
>  <MODEL>
6

>  <REMARK>
 VINA RESULT:      -3.9     11.191     12.597
  4 active torsions:
  status: ('A' for Active; 'I' for Inactive)
    1  A    between atoms: C_2  and  O_10 
    2  A    between atoms: C_3  and  O_9 
    3  A    between atoms: C_4  and  O_8 
    4  A    between atoms: C_5  and  O_7 

>  <TORSDO>
F 4

$$$$
../results/processed/lowest_conf/7XP6/docked/s4.pdbqt
 OpenBabel07252415363D

 14 14  0  0  1  0  0  0  0  0999 V2000
  141.6500  141.6660   94.4140 C   0  0  0  0  0  2  0  0  0  0  0  0
  140.9480  143.0100   94.6590 C   0  0  2  0  0  3  0  0  0  0  0  0
  140.8390  143.3300   96.1590 C   0  0  1  0  0  3  0  0  0  0  0  0
  142.0490  142.7820   96.9020 C   0  0  1  0  0  3  0  0  0  0  0  0
  142.1020  141.2490   96.7240 C   0  0  1  0  0  3  0  0  0  0  0  0
  141.5000  140.7760   95.5250 O   0  0  0  0  0  0  0  0  0  0  0  0
  139.6250  142.9940   94.1030 O   0  0  0  0  0  0  0  0  0  0  0  0
  139.7310  143.2080   93.1560 H   0  0  0  0  0  0  0  0  0  0  0  0
  140.7500  144.7530   96.3230 O   0  0  0  0  0  0  0  0  0  0  0  0
  140.5880  145.1090   95.4240 H   0  0  0  0  0  0  0  0  0  0  0  0
  143.2300  143.4110   96.3560 O   0  0  0  0  0  0  0  0  0  0  0  0
  143.8140  143.5500   97.1350 H   0  0  0  0  0  0  0  0  0  0  0  0
  143.4630  140.8330   96.7610 O   0  0  0  0  0  0  0  0  0  0  0  0
  143.4170  139.8610   96.7470 H   0  0  0  0  0  0  0  0  0  0  0  0
  1  2  1  0  0  0  0
  1  6  1  0  0  0  0
  2  7  1  1  0  0  0
  2  3  1  0  0  0  0
  3  9  1  6  0  0  0
  3  4  1  0  0  0  0
  4 11  1  6  0  0  0
  5 13  1  6  0  0  0
  5  4  1  0  0  0  0
  6  5  1  0  0  0  0
  8  7  1  0  0  0  0
 10  9  1  0  0  0  0
 11 12  1  0  0  0  0
 14 13  1  0  0  0  0
M  END
>  <MODEL>
7

>  <REMARK>
 VINA RESULT:      -3.9     13.194     14.171
  4 active torsions:
  status: ('A' for Active; 'I' for Inactive)
    1  A    between atoms: C_2  and  O_10 
    2  A    between atoms: C_3  and  O_9 
    3  A    between atoms: C_4  and  O_8 
    4  A    between atoms: C_5  and  O_7 

>  <TORSDO>
F 4

$$$$
../results/processed/lowest_conf/7XP6/docked/s4.pdbqt
 OpenBabel07252415363D

 14 14  0  0  1  0  0  0  0  0999 V2000
  133.7000  130.6220   93.5380 C   0  0  0  0  0  2  0  0  0  0  0  0
  133.6520  129.4240   92.5780 C   0  0  2  0  0  3  0  0  0  0  0  0
  134.0720  128.1190   93.2750 C   0  0  1  0  0  3  0  0  0  0  0  0
  133.6380  128.1390   94.7330 C   0  0  1  0  0  3  0  0  0  0  0  0
  134.3210  129.3260   95.4490 C   0  0  1  0  0  3  0  0  0  0  0  0
  134.6420  130.4190   94.5970 O   0  0  0  0  0  0  0  0  0  0  0  0
  134.5250  129.6420   91.4600 O   0  0  0  0  0  0  0  0  0  0  0  0
  135.1170  128.8650   91.4290 H   0  0  0  0  0  0  0  0  0  0  0  0
  133.4710  127.0130   92.5860 O   0  0  0  0  0  0  0  0  0  0  0  0
  134.2170  126.4470   92.2980 H   0  0  0  0  0  0  0  0  0  0  0  0
  132.1990  128.2670   94.7680 O   0  0  0  0  0  0  0  0  0  0  0  0
  131.9970  128.9300   94.0710 H   0  0  0  0  0  0  0  0  0  0  0  0
  133.4650  129.7800   96.4920 O   0  0  0  0  0  0  0  0  0  0  0  0
  133.1060  130.6220   96.1570 H   0  0  0  0  0  0  0  0  0  0  0  0
  1  6  1  0  0  0  0
  2  7  1  6  0  0  0
  2  3  1  0  0  0  0
  2  1  1  0  0  0  0
  3  9  1  6  0  0  0
  3  4  1  0  0  0  0
  4 11  1  6  0  0  0
  4  5  1  0  0  0  0
  5 13  1  1  0  0  0
  6  5  1  0  0  0  0
  8  7  1  0  0  0  0
 10  9  1  0  0  0  0
 12 11  1  0  0  0  0
 14 13  1  0  0  0  0
M  END
>  <MODEL>
8

>  <REMARK>
 VINA RESULT:      -3.8     17.354     18.740
  4 active torsions:
  status: ('A' for Active; 'I' for Inactive)
    1  A    between atoms: C_2  and  O_10 
    2  A    between atoms: C_3  and  O_9 
    3  A    between atoms: C_4  and  O_8 
    4  A    between atoms: C_5  and  O_7 

>  <TORSDO>
F 4

$$$$
../results/processed/lowest_conf/7XP6/docked/s4.pdbqt
 OpenBabel07252415363D

 14 14  0  0  1  0  0  0  0  0999 V2000
  143.0380  142.7720   96.0370 C   0  0  0  0  0  2  0  0  0  0  0  0
  142.7050  141.6820   95.0070 C   0  0  2  0  0  3  0  0  0  0  0  0
  141.1880  141.5080   94.8330 C   0  0  1  0  0  3  0  0  0  0  0  0
  140.4820  142.8450   95.0080 C   0  0  1  0  0  3  0  0  0  0  0  0
  140.7600  143.3820   96.4300 C   0  0  1  0  0  3  0  0  0  0  0  0
  141.9880  142.9390   96.9950 O   0  0  0  0  0  0  0  0  0  0  0  0
  143.2620  140.4230   95.4130 O   0  0  0  0  0  0  0  0  0  0  0  0
  142.9930  140.2990   96.3440 H   0  0  0  0  0  0  0  0  0  0  0  0
  140.9310  140.9710   93.5270 O   0  0  0  0  0  0  0  0  0  0  0  0
  139.9560  140.9450   93.4420 H   0  0  0  0  0  0  0  0  0  0  0  0
  140.9860  143.7500   94.0000 O   0  0  0  0  0  0  0  0  0  0  0  0
  140.2960  143.7420   93.3000 H   0  0  0  0  0  0  0  0  0  0  0  0
  140.7500  144.8050   96.3870 O   0  0  0  0  0  0  0  0  0  0  0  0
  140.6240  145.0710   97.3150 H   0  0  0  0  0  0  0  0  0  0  0  0
  1  6  1  0  0  0  0
  2  7  1  1  0  0  0
  2  1  1  0  0  0  0
  3  9  1  6  0  0  0
  3  2  1  0  0  0  0
  3  4  1  0  0  0  0
  4 11  1  6  0  0  0
  4  5  1  0  0  0  0
  5 13  1  6  0  0  0
  5  6  1  0  0  0  0
  7  8  1  0  0  0  0
 10  9  1  0  0  0  0
 12 11  1  0  0  0  0
 13 14  1  0  0  0  0
M  END
>  <MODEL>
9

>  <REMARK>
 VINA RESULT:      -3.8     13.545     14.783
  4 active torsions:
  status: ('A' for Active; 'I' for Inactive)
    1  A    between atoms: C_2  and  O_10 
    2  A    between atoms: C_3  and  O_9 
    3  A    between atoms: C_4  and  O_8 
    4  A    between atoms: C_5  and  O_7 

>  <TORSDO>
F 4

$$$$
