../results/processed/lowest_conf/7XP6/docked/s4c.pdbqt
 OpenBabel07252415373D

 29 30  0  0  1  0  0  0  0  0999 V2000
  144.1920  133.7400   96.8130 C   0  0  1  0  0  3  0  0  0  0  0  0
  144.9990  134.4770   95.7240 C   0  0  2  0  0  3  0  0  0  0  0  0
  146.2770  133.8420   95.4820 O   0  0  0  0  0  0  0  0  0  0  0  0
  147.0780  133.6940   96.6430 C   0  0  1  0  0  3  0  0  0  0  0  0
  146.3640  132.8780   97.7330 C   0  0  2  0  0  3  0  0  0  0  0  0
  145.0300  133.5320   98.0870 C   0  0  1  0  0  3  0  0  0  0  0  0
  142.9770  134.4170   97.1590 O   0  0  0  0  0  0  0  0  0  0  0  0
  141.8350  133.9710   96.4240 C   0  0  2  0  0  3  0  0  0  0  0  0
  141.4880  134.8660   95.3670 O   0  0  0  0  0  0  0  0  0  0  0  0
  140.5370  135.8630   95.7560 C   0  0  1  0  0  3  0  0  0  0  0  0
  140.4030  136.8620   94.6140 C   0  0  0  0  0  1  0  0  0  0  0  0
  139.1780  135.2200   96.0980 C   0  0  1  0  0  3  0  0  0  0  0  0
  139.3580  133.8150   96.6960 C   0  0  1  0  0  3  0  0  0  0  0  0
  140.6890  133.7350   97.4360 C   0  0  1  0  0  3  0  0  0  0  0  0
  138.4880  136.0590   97.0350 O   0  0  0  0  0  0  0  0  0  0  0  0
  138.4920  135.5500   97.8740 H   0  0  0  0  0  0  0  0  0  0  0  0
  138.2650  133.5240   97.5830 O   0  0  0  0  0  0  0  0  0  0  0  0
  137.4930  133.9740   97.1810 H   0  0  0  0  0  0  0  0  0  0  0  0
  140.8060  132.4520   98.0750 O   0  0  0  0  0  0  0  0  0  0  0  0
  140.8320  132.6380   99.0340 H   0  0  0  0  0  0  0  0  0  0  0  0
  145.1740  135.9880   95.9460 C   0  0  0  0  0  2  0  0  0  0  0  0
  143.9670  136.6670   95.5800 O   0  0  0  0  0  0  0  0  0  0  0  0
  143.2480  136.0110   95.6390 H   0  0  0  0  0  0  0  0  0  0  0  0
  145.2830  134.7740   98.7630 O   0  0  0  0  0  0  0  0  0  0  0  0
  144.4210  135.0310   99.1510 H   0  0  0  0  0  0  0  0  0  0  0  0
  147.1760  132.7930   98.9150 O   0  0  0  0  0  0  0  0  0  0  0  0
  148.0770  133.0370   98.6190 H   0  0  0  0  0  0  0  0  0  0  0  0
  148.2510  132.9740   96.2780 O   0  0  0  0  0  0  0  0  0  0  0  0
  148.0260  132.0390   96.4300 H   0  0  0  0  0  0  0  0  0  0  0  0
  1  7  1  1  0  0  0
  1  6  1  0  0  0  0
  2 21  1  1  0  0  0
  2  1  1  0  0  0  0
  3  2  1  0  0  0  0
  3  4  1  0  0  0  0
  4 28  1  6  0  0  0
  4  5  1  0  0  0  0
  5  6  1  0  0  0  0
  5 26  1  1  0  0  0
  6 24  1  6  0  0  0
  8  7  1  1  0  0  0
  8 14  1  0  0  0  0
  9 10  1  0  0  0  0
  9  8  1  0  0  0  0
 10 11  1  6  0  0  0
 10 12  1  0  0  0  0
 12 13  1  0  0  0  0
 12 15  1  1  0  0  0
 13 14  1  0  0  0  0
 13 17  1  1  0  0  0
 14 19  1  6  0  0  0
 15 16  1  0  0  0  0
 18 17  1  0  0  0  0
 19 20  1  0  0  0  0
 22 23  1  0  0  0  0
 22 21  1  0  0  0  0
 24 25  1  0  0  0  0
 27 26  1  0  0  0  0
 28 29  1  0  0  0  0
M  END
>  <MODEL>
1

>  <REMARK>
 VINA RESULT:      -5.5      0.000      0.000
  10 active torsions:
  status: ('A' for Active; 'I' for Inactive)
    1  A    between atoms: C_4  and  O_5 
    2  A    between atoms: O_5  and  C_6 
    3  A    between atoms: C_7  and  C_8 
    4  A    between atoms: C_8  and  O_9 
    5  A    between atoms: C_11  and  O_12 
    6  A    between atoms: C_13  and  O_14 
    7  A    between atoms: C_15  and  O_16 
    8  A    between atoms: C_17  and  O_18 
    9  A    between atoms: C_19  and  O_20 
   10  A    between atoms: C_21  and  O_22 

>  <TORSDO>
F 10

$$$$
../results/processed/lowest_conf/7XP6/docked/s4c.pdbqt
 OpenBabel07252415373D

 29 30  0  0  1  0  0  0  0  0999 V2000
  142.7340  135.4220   97.8480 C   0  0  1  0  0  3  0  0  0  0  0  0
  142.3980  134.6530   96.5540 C   0  0  2  0  0  3  0  0  0  0  0  0
  141.5710  133.4960   96.8170 O   0  0  0  0  0  0  0  0  0  0  0  0
  142.1200  132.5980   97.7690 C   0  0  1  0  0  3  0  0  0  0  0  0
  142.3850  133.2850   99.1190 C   0  0  2  0  0  3  0  0  0  0  0  0
  143.3100  134.4830   98.9230 C   0  0  1  0  0  3  0  0  0  0  0  0
  143.6520  136.5020   97.6320 O   0  0  0  0  0  0  0  0  0  0  0  0
  143.7210  137.4310   98.7160 C   0  0  2  0  0  3  0  0  0  0  0  0
  142.9980  138.6330   98.4460 O   0  0  0  0  0  0  0  0  0  0  0  0
  143.8010  139.6550   97.8460 C   0  0  1  0  0  3  0  0  0  0  0  0
  142.8810  140.7970   97.4300 C   0  0  0  0  0  1  0  0  0  0  0  0
  144.8890  140.1430   98.8240 C   0  0  1  0  0  3  0  0  0  0  0  0
  145.3560  139.0080   99.7510 C   0  0  1  0  0  3  0  0  0  0  0  0
  145.2150  137.6680   99.0370 C   0  0  1  0  0  3  0  0  0  0  0  0
  146.0020  140.6430   98.0720 O   0  0  0  0  0  0  0  0  0  0  0  0
  146.6220  139.8840   98.0110 H   0  0  0  0  0  0  0  0  0  0  0  0
  146.7210  139.2350  100.1400 O   0  0  0  0  0  0  0  0  0  0  0  0
  147.2470  139.0030   99.3450 H   0  0  0  0  0  0  0  0  0  0  0  0
  145.7460  136.6230   99.8710 O   0  0  0  0  0  0  0  0  0  0  0  0
  146.4670  136.2140   99.3520 H   0  0  0  0  0  0  0  0  0  0  0  0
  143.6060  134.2740   95.6830 C   0  0  0  0  0  2  0  0  0  0  0  0
  144.1280  135.4500   95.0510 O   0  0  0  0  0  0  0  0  0  0  0  0
  143.3670  136.0330   94.8740 H   0  0  0  0  0  0  0  0  0  0  0  0
  144.6190  134.0110   98.5680 O   0  0  0  0  0  0  0  0  0  0  0  0
  145.1410  134.8210   98.3870 H   0  0  0  0  0  0  0  0  0  0  0  0
  142.9910  132.3670  100.0430 O   0  0  0  0  0  0  0  0  0  0  0  0
  142.2390  131.9150  100.4790 H   0  0  0  0  0  0  0  0  0  0  0  0
  141.1650  131.5670   98.0010 O   0  0  0  0  0  0  0  0  0  0  0  0
  141.4710  130.8190   97.4600 H   0  0  0  0  0  0  0  0  0  0  0  0
  1  7  1  6  0  0  0
  1  6  1  0  0  0  0
  2 21  1  1  0  0  0
  2  3  1  0  0  0  0
  2  1  1  0  0  0  0
  3  4  1  0  0  0  0
  4 28  1  1  0  0  0
  4  5  1  0  0  0  0
  5 26  1  1  0  0  0
  6 24  1  6  0  0  0
  6  5  1  0  0  0  0
  8  7  1  6  0  0  0
  8 14  1  0  0  0  0
  9  8  1  0  0  0  0
 10 11  1  1  0  0  0
 10  9  1  0  0  0  0
 10 12  1  0  0  0  0
 12 15  1  6  0  0  0
 12 13  1  0  0  0  0
 13 17  1  6  0  0  0
 14 13  1  0  0  0  0
 14 19  1  1  0  0  0
 16 15  1  0  0  0  0
 18 17  1  0  0  0  0
 20 19  1  0  0  0  0
 22 21  1  0  0  0  0
 23 22  1  0  0  0  0
 25 24  1  0  0  0  0
 26 27  1  0  0  0  0
 29 28  1  0  0  0  0
M  END
>  <MODEL>
2

>  <REMARK>
 VINA RESULT:      -5.3      3.242      5.598
  10 active torsions:
  status: ('A' for Active; 'I' for Inactive)
    1  A    between atoms: C_4  and  O_5 
    2  A    between atoms: O_5  and  C_6 
    3  A    between atoms: C_7  and  C_8 
    4  A    between atoms: C_8  and  O_9 
    5  A    between atoms: C_11  and  O_12 
    6  A    between atoms: C_13  and  O_14 
    7  A    between atoms: C_15  and  O_16 
    8  A    between atoms: C_17  and  O_18 
    9  A    between atoms: C_19  and  O_20 
   10  A    between atoms: C_21  and  O_22 

>  <TORSDO>
F 10

$$$$
../results/processed/lowest_conf/7XP6/docked/s4c.pdbqt
 OpenBabel07252415373D

 29 30  0  0  1  0  0  0  0  0999 V2000
  142.4640  140.7330   96.4930 C   0  0  1  0  0  3  0  0  0  0  0  0
  142.4300  142.2270   96.8800 C   0  0  2  0  0  3  0  0  0  0  0  0
  141.2660  142.8940   96.3410 O   0  0  0  0  0  0  0  0  0  0  0  0
  141.1270  142.7690   94.9340 C   0  0  1  0  0  3  0  0  0  0  0  0
  141.0530  141.2980   94.4940 C   0  0  2  0  0  3  0  0  0  0  0  0
  142.2910  140.5450   94.9750 C   0  0  1  0  0  3  0  0  0  0  0  0
  143.6680  140.0770   96.9100 O   0  0  0  0  0  0  0  0  0  0  0  0
  143.5450  139.3720   98.1480 C   0  0  2  0  0  3  0  0  0  0  0  0
  143.7410  140.2230   99.2780 O   0  0  0  0  0  0  0  0  0  0  0  0
  145.1010  140.2680   99.7250 C   0  0  1  0  0  3  0  0  0  0  0  0
  145.2130  141.3490  100.7930 C   0  0  0  0  0  1  0  0  0  0  0  0
  145.5440  138.8950  100.2710 C   0  0  1  0  0  3  0  0  0  0  0  0
  144.8380  137.7460   99.5320 C   0  0  1  0  0  3  0  0  0  0  0  0
  144.5180  138.1710   98.1030 C   0  0  1  0  0  3  0  0  0  0  0  0
  146.9630  138.7700  100.1180 O   0  0  0  0  0  0  0  0  0  0  0  0
  147.1250  137.8020  100.0770 H   0  0  0  0  0  0  0  0  0  0  0  0
  145.6800  136.5810   99.5380 O   0  0  0  0  0  0  0  0  0  0  0  0
  146.1160  136.5840   98.6600 H   0  0  0  0  0  0  0  0  0  0  0  0
  143.9490  137.0600   97.3890 O   0  0  0  0  0  0  0  0  0  0  0  0
  142.9950  137.0700   97.6030 H   0  0  0  0  0  0  0  0  0  0  0  0
  143.7090  143.0170   96.5600 C   0  0  0  0  0  2  0  0  0  0  0  0
  143.5140  144.3970   96.8910 O   0  0  0  0  0  0  0  0  0  0  0  0
  143.0180  144.4160   97.7310 H   0  0  0  0  0  0  0  0  0  0  0  0
  143.4370  141.0150   94.2490 O   0  0  0  0  0  0  0  0  0  0  0  0
  143.8470  140.2080   93.8720 H   0  0  0  0  0  0  0  0  0  0  0  0
  140.9700  141.2020   93.0630 O   0  0  0  0  0  0  0  0  0  0  0  0
  140.6510  142.0810   92.7700 H   0  0  0  0  0  0  0  0  0  0  0  0
  139.8990  143.3840   94.5580 O   0  0  0  0  0  0  0  0  0  0  0  0
  139.9540  143.4770   93.5910 H   0  0  0  0  0  0  0  0  0  0  0  0
  1  2  1  0  0  0  0
  1  7  1  6  0  0  0
  2 21  1  6  0  0  0
  3  2  1  0  0  0  0
  4 28  1  1  0  0  0
  4  3  1  0  0  0  0
  5 26  1  6  0  0  0
  5  4  1  0  0  0  0
  5  6  1  0  0  0  0
  6 24  1  6  0  0  0
  6  1  1  0  0  0  0
  8  7  1  6  0  0  0
  8  9  1  0  0  0  0
  9 10  1  0  0  0  0
 10 12  1  0  0  0  0
 10 11  1  1  0  0  0
 12 15  1  6  0  0  0
 13 17  1  6  0  0  0
 13 12  1  0  0  0  0
 14 19  1  6  0  0  0
 14  8  1  0  0  0  0
 14 13  1  0  0  0  0
 16 15  1  0  0  0  0
 18 17  1  0  0  0  0
 19 20  1  0  0  0  0
 21 22  1  0  0  0  0
 22 23  1  0  0  0  0
 25 24  1  0  0  0  0
 27 26  1  0  0  0  0
 29 28  1  0  0  0  0
M  END
>  <MODEL>
3

>  <REMARK>
 VINA RESULT:      -5.2      5.383      8.601
  10 active torsions:
  status: ('A' for Active; 'I' for Inactive)
    1  A    between atoms: C_4  and  O_5 
    2  A    between atoms: O_5  and  C_6 
    3  A    between atoms: C_7  and  C_8 
    4  A    between atoms: C_8  and  O_9 
    5  A    between atoms: C_11  and  O_12 
    6  A    between atoms: C_13  and  O_14 
    7  A    between atoms: C_15  and  O_16 
    8  A    between atoms: C_17  and  O_18 
    9  A    between atoms: C_19  and  O_20 
   10  A    between atoms: C_21  and  O_22 

>  <TORSDO>
F 10

$$$$
../results/processed/lowest_conf/7XP6/docked/s4c.pdbqt
 OpenBabel07252415373D

 29 30  0  0  1  0  0  0  0  0999 V2000
  144.4310  140.4600   96.7590 C   0  0  1  0  0  3  0  0  0  0  0  0
  145.8410  139.9840   96.3490 C   0  0  2  0  0  3  0  0  0  0  0  0
  146.5270  139.3370   97.4450 O   0  0  0  0  0  0  0  0  0  0  0  0
  146.6200  140.1300   98.6180 C   0  0  1  0  0  3  0  0  0  0  0  0
  145.2360  140.5540   99.1350 C   0  0  2  0  0  3  0  0  0  0  0  0
  144.4780  141.3060   98.0440 C   0  0  1  0  0  3  0  0  0  0  0  0
  143.7780  141.2130   95.7290 O   0  0  0  0  0  0  0  0  0  0  0  0
  142.3960  141.4750   95.9890 C   0  0  2  0  0  3  0  0  0  0  0  0
  141.5320  140.6330   95.2260 O   0  0  0  0  0  0  0  0  0  0  0  0
  141.1470  141.2050   93.9710 C   0  0  1  0  0  3  0  0  0  0  0  0
  140.3990  140.1420   93.1760 C   0  0  0  0  0  1  0  0  0  0  0  0
  140.2740  142.4590   94.1850 C   0  0  1  0  0  3  0  0  0  0  0  0
  140.6710  143.2030   95.4710 C   0  0  1  0  0  3  0  0  0  0  0  0
  142.1530  142.9840   95.7570 C   0  0  1  0  0  3  0  0  0  0  0  0
  140.4250  143.3290   93.0560 O   0  0  0  0  0  0  0  0  0  0  0  0
  139.9390  144.1460   93.3040 H   0  0  0  0  0  0  0  0  0  0  0  0
  140.3830  144.6040   95.3250 O   0  0  0  0  0  0  0  0  0  0  0  0
  140.4130  144.9590   96.2380 H   0  0  0  0  0  0  0  0  0  0  0  0
  142.5390  143.7620   96.9030 O   0  0  0  0  0  0  0  0  0  0  0  0
  141.7050  143.9940   97.3570 H   0  0  0  0  0  0  0  0  0  0  0  0
  146.7340  141.0550   95.7030 C   0  0  0  0  0  2  0  0  0  0  0  0
  146.2720  141.3220   94.3720 O   0  0  0  0  0  0  0  0  0  0  0  0
  145.6170  142.0400   94.4430 H   0  0  0  0  0  0  0  0  0  0  0  0
  145.1130  142.5740   97.8210 O   0  0  0  0  0  0  0  0  0  0  0  0
  145.8710  142.3780   97.2320 H   0  0  0  0  0  0  0  0  0  0  0  0
  145.3640  141.4010  100.2890 O   0  0  0  0  0  0  0  0  0  0  0  0
  144.5150  141.8870  100.3400 H   0  0  0  0  0  0  0  0  0  0  0  0
  147.2260  139.3390   99.6360 O   0  0  0  0  0  0  0  0  0  0  0  0
  147.6250  139.9830  100.2470 H   0  0  0  0  0  0  0  0  0  0  0  0
  1  7  1  6  0  0  0
  1  6  1  0  0  0  0
  2 21  1  1  0  0  0
  2  1  1  0  0  0  0
  2  3  1  0  0  0  0
  3  4  1  0  0  0  0
  4  5  1  0  0  0  0
  4 28  1  1  0  0  0
  5 26  1  1  0  0  0
  6 24  1  6  0  0  0
  6  5  1  0  0  0  0
  8  7  1  6  0  0  0
  9  8  1  0  0  0  0
 10 11  1  6  0  0  0
 10 12  1  0  0  0  0
 10  9  1  0  0  0  0
 12 15  1  6  0  0  0
 12 13  1  0  0  0  0
 13 17  1  6  0  0  0
 13 14  1  0  0  0  0
 14  8  1  0  0  0  0
 14 19  1  1  0  0  0
 15 16  1  0  0  0  0
 17 18  1  0  0  0  0
 19 20  1  0  0  0  0
 22 23  1  0  0  0  0
 22 21  1  0  0  0  0
 25 24  1  0  0  0  0
 26 27  1  0  0  0  0
 28 29  1  0  0  0  0
M  END
>  <MODEL>
4

>  <REMARK>
 VINA RESULT:      -5.2      6.297      7.657
  10 active torsions:
  status: ('A' for Active; 'I' for Inactive)
    1  A    between atoms: C_4  and  O_5 
    2  A    between atoms: O_5  and  C_6 
    3  A    between atoms: C_7  and  C_8 
    4  A    between atoms: C_8  and  O_9 
    5  A    between atoms: C_11  and  O_12 
    6  A    between atoms: C_13  and  O_14 
    7  A    between atoms: C_15  and  O_16 
    8  A    between atoms: C_17  and  O_18 
    9  A    between atoms: C_19  and  O_20 
   10  A    between atoms: C_21  and  O_22 

>  <TORSDO>
F 10

$$$$
../results/processed/lowest_conf/7XP6/docked/s4c.pdbqt
 OpenBabel07252415373D

 29 30  0  0  1  0  0  0  0  0999 V2000
  142.0560  140.4340   96.4610 C   0  0  1  0  0  3  0  0  0  0  0  0
  142.3170  141.6910   97.3180 C   0  0  2  0  0  3  0  0  0  0  0  0
  141.3810  142.7510   97.0130 O   0  0  0  0  0  0  0  0  0  0  0  0
  141.3460  143.1150   95.6420 C   0  0  1  0  0  3  0  0  0  0  0  0
  140.9900  141.9210   94.7410 C   0  0  2  0  0  3  0  0  0  0  0  0
  141.9840  140.7830   94.9640 C   0  0  1  0  0  3  0  0  0  0  0  0
  143.0440  139.4140   96.6540 O   0  0  0  0  0  0  0  0  0  0  0  0
  142.8210  138.6020   97.8100 C   0  0  2  0  0  3  0  0  0  0  0  0
  143.8180  138.8020   98.8130 O   0  0  0  0  0  0  0  0  0  0  0  0
  144.9240  137.9000   98.7000 C   0  0  1  0  0  3  0  0  0  0  0  0
  145.9960  138.3400   99.6900 C   0  0  0  0  0  1  0  0  0  0  0  0
  144.4780  136.4490   98.9700 C   0  0  1  0  0  3  0  0  0  0  0  0
  143.0290  136.2150   98.5100 C   0  0  1  0  0  3  0  0  0  0  0  0
  142.7050  137.1340   97.3380 C   0  0  1  0  0  3  0  0  0  0  0  0
  145.3560  135.5540   98.2740 O   0  0  0  0  0  0  0  0  0  0  0  0
  146.2370  135.9850   98.3200 H   0  0  0  0  0  0  0  0  0  0  0  0
  142.8570  134.8380   98.1380 O   0  0  0  0  0  0  0  0  0  0  0  0
  142.0510  134.8300   97.5810 H   0  0  0  0  0  0  0  0  0  0  0  0
  141.3840  136.8420   96.8500 O   0  0  0  0  0  0  0  0  0  0  0  0
  141.0660  137.6700   96.4400 H   0  0  0  0  0  0  0  0  0  0  0  0
  143.7620  142.2150   97.2920 C   0  0  0  0  0  2  0  0  0  0  0  0
  144.5290  141.5480   98.3020 O   0  0  0  0  0  0  0  0  0  0  0  0
  144.2410  141.9130   99.1590 H   0  0  0  0  0  0  0  0  0  0  0  0
  143.2660  141.1740   94.4480 O   0  0  0  0  0  0  0  0  0  0  0  0
  143.5350  141.9430   94.9920 H   0  0  0  0  0  0  0  0  0  0  0  0
  141.0170  142.3060   93.3570 O   0  0  0  0  0  0  0  0  0  0  0  0
  140.4500  141.6500   92.9020 H   0  0  0  0  0  0  0  0  0  0  0  0
  140.3210  144.0890   95.4730 O   0  0  0  0  0  0  0  0  0  0  0  0
  140.5430  144.7950   96.1060 H   0  0  0  0  0  0  0  0  0  0  0  0
  1  7  1  6  0  0  0
  1  2  1  0  0  0  0
  2 21  1  6  0  0  0
  3  2  1  0  0  0  0
  4 28  1  1  0  0  0
  4  3  1  0  0  0  0
  5 26  1  6  0  0  0
  5  6  1  0  0  0  0
  5  4  1  0  0  0  0
  6 24  1  1  0  0  0
  6  1  1  0  0  0  0
  8  7  1  6  0  0  0
  8  9  1  0  0  0  0
 10  9  1  0  0  0  0
 10 12  1  0  0  0  0
 10 11  1  1  0  0  0
 12 15  1  6  0  0  0
 13 17  1  6  0  0  0
 13 12  1  0  0  0  0
 14 19  1  1  0  0  0
 14  8  1  0  0  0  0
 14 13  1  0  0  0  0
 15 16  1  0  0  0  0
 18 17  1  0  0  0  0
 20 19  1  0  0  0  0
 21 22  1  0  0  0  0
 22 23  1  0  0  0  0
 24 25  1  0  0  0  0
 27 26  1  0  0  0  0
 28 29  1  0  0  0  0
M  END
>  <MODEL>
5

>  <REMARK>
 VINA RESULT:      -5.1      4.781      7.856
  10 active torsions:
  status: ('A' for Active; 'I' for Inactive)
    1  A    between atoms: C_4  and  O_5 
    2  A    between atoms: O_5  and  C_6 
    3  A    between atoms: C_7  and  C_8 
    4  A    between atoms: C_8  and  O_9 
    5  A    between atoms: C_11  and  O_12 
    6  A    between atoms: C_13  and  O_14 
    7  A    between atoms: C_15  and  O_16 
    8  A    between atoms: C_17  and  O_18 
    9  A    between atoms: C_19  and  O_20 
   10  A    between atoms: C_21  and  O_22 

>  <TORSDO>
F 10

$$$$
../results/processed/lowest_conf/7XP6/docked/s4c.pdbqt
 OpenBabel07252415373D

 29 30  0  0  1  0  0  0  0  0999 V2000
  143.2370  137.9350   97.9590 C   0  0  1  0  0  3  0  0  0  0  0  0
  141.9800  137.0550   97.7930 C   0  0  2  0  0  3  0  0  0  0  0  0
  141.9210  136.0110   98.7920 O   0  0  0  0  0  0  0  0  0  0  0  0
  143.0730  135.1840   98.8330 C   0  0  1  0  0  3  0  0  0  0  0  0
  144.3530  135.9950   99.0970 C   0  0  2  0  0  3  0  0  0  0  0  0
  144.5140  137.0790   98.0340 C   0  0  1  0  0  3  0  0  0  0  0  0
  143.3830  138.8990   96.9090 O   0  0  0  0  0  0  0  0  0  0  0  0
  142.6050  140.0840   97.0960 C   0  0  2  0  0  3  0  0  0  0  0  0
  141.5530  140.1980   96.1370 O   0  0  0  0  0  0  0  0  0  0  0  0
  141.9310  140.9310   94.9670 C   0  0  1  0  0  3  0  0  0  0  0  0
  140.8030  140.8130   93.9490 C   0  0  0  0  0  1  0  0  0  0  0  0
  142.2180  142.4070   95.3120 C   0  0  1  0  0  3  0  0  0  0  0  0
  142.7950  142.5460   96.7310 C   0  0  1  0  0  3  0  0  0  0  0  0
  143.5750  141.2880   97.0970 C   0  0  1  0  0  3  0  0  0  0  0  0
  143.1470  142.9370   94.3580 O   0  0  0  0  0  0  0  0  0  0  0  0
  142.9010  143.8830   94.2700 H   0  0  0  0  0  0  0  0  0  0  0  0
  143.6410  143.7060   96.7950 O   0  0  0  0  0  0  0  0  0  0  0  0
  144.5440  143.3470   96.9240 H   0  0  0  0  0  0  0  0  0  0  0  0
  144.1940  141.4650   98.3830 O   0  0  0  0  0  0  0  0  0  0  0  0
  143.6030  141.0210   99.0220 H   0  0  0  0  0  0  0  0  0  0  0  0
  141.7660  136.4760   96.3850 C   0  0  0  0  0  2  0  0  0  0  0  0
  141.0180  137.4080   95.5940 O   0  0  0  0  0  0  0  0  0  0  0  0
  140.0860  137.3230   95.8700 H   0  0  0  0  0  0  0  0  0  0  0  0
  144.8110  136.4580   96.7740 O   0  0  0  0  0  0  0  0  0  0  0  0
  144.4690  135.5430   96.8550 H   0  0  0  0  0  0  0  0  0  0  0  0
  145.5070  135.1390   99.0770 O   0  0  0  0  0  0  0  0  0  0  0  0
  145.6630  134.9490   98.1290 H   0  0  0  0  0  0  0  0  0  0  0  0
  142.9210  134.2720   99.9170 O   0  0  0  0  0  0  0  0  0  0  0  0
  143.6620  133.6480   99.8220 H   0  0  0  0  0  0  0  0  0  0  0  0
  1  7  1  6  0  0  0
  1  6  1  0  0  0  0
  2 21  1  6  0  0  0
  2  1  1  0  0  0  0
  2  3  1  0  0  0  0
  3  4  1  0  0  0  0
  4  5  1  0  0  0  0
  4 28  1  1  0  0  0
  5 26  1  6  0  0  0
  6 24  1  6  0  0  0
  6  5  1  0  0  0  0
  8  7  1  6  0  0  0
  8 14  1  0  0  0  0
  9  8  1  0  0  0  0
 10 11  1  6  0  0  0
 10 12  1  0  0  0  0
 10  9  1  0  0  0  0
 12 15  1  6  0  0  0
 12 13  1  0  0  0  0
 13 17  1  6  0  0  0
 13 14  1  0  0  0  0
 14 19  1  1  0  0  0
 16 15  1  0  0  0  0
 17 18  1  0  0  0  0
 19 20  1  0  0  0  0
 22 23  1  0  0  0  0
 22 21  1  0  0  0  0
 24 25  1  0  0  0  0
 27 26  1  0  0  0  0
 29 28  1  0  0  0  0
M  END
>  <MODEL>
6

>  <REMARK>
 VINA RESULT:      -5.1      4.154      6.236
  10 active torsions:
  status: ('A' for Active; 'I' for Inactive)
    1  A    between atoms: C_4  and  O_5 
    2  A    between atoms: O_5  and  C_6 
    3  A    between atoms: C_7  and  C_8 
    4  A    between atoms: C_8  and  O_9 
    5  A    between atoms: C_11  and  O_12 
    6  A    between atoms: C_13  and  O_14 
    7  A    between atoms: C_15  and  O_16 
    8  A    between atoms: C_17  and  O_18 
    9  A    between atoms: C_19  and  O_20 
   10  A    between atoms: C_21  and  O_22 

>  <TORSDO>
F 10

$$$$
../results/processed/lowest_conf/7XP6/docked/s4c.pdbqt
 OpenBabel07252415373D

 29 30  0  0  1  0  0  0  0  0999 V2000
  143.7660  137.8960   98.2510 C   0  0  1  0  0  3  0  0  0  0  0  0
  142.3340  137.3290   98.1570 C   0  0  2  0  0  3  0  0  0  0  0  0
  142.1740  136.1420   98.9690 O   0  0  0  0  0  0  0  0  0  0  0  0
  143.1080  135.1140   98.6810 C   0  0  1  0  0  3  0  0  0  0  0  0
  144.5590  135.5920   98.8560 C   0  0  2  0  0  3  0  0  0  0  0  0
  144.8190  136.8090   97.9710 C   0  0  1  0  0  3  0  0  0  0  0  0
  143.9870  138.9990   97.3620 O   0  0  0  0  0  0  0  0  0  0  0  0
  144.1450  140.2560   98.0250 C   0  0  2  0  0  3  0  0  0  0  0  0
  142.9440  141.0290   98.0140 O   0  0  0  0  0  0  0  0  0  0  0  0
  142.8490  141.9140   96.8930 C   0  0  1  0  0  3  0  0  0  0  0  0
  141.4540  142.5260   96.8900 C   0  0  0  0  0  1  0  0  0  0  0  0
  143.9370  143.0050   96.9630 C   0  0  1  0  0  3  0  0  0  0  0  0
  145.2160  142.4770   97.6340 C   0  0  1  0  0  3  0  0  0  0  0  0
  145.3510  140.9790   97.3810 C   0  0  1  0  0  3  0  0  0  0  0  0
  144.2360  143.4500   95.6340 O   0  0  0  0  0  0  0  0  0  0  0  0
  145.2000  143.2970   95.5310 H   0  0  0  0  0  0  0  0  0  0  0  0
  146.3570  143.1830   97.1190 O   0  0  0  0  0  0  0  0  0  0  0  0
  145.9940  143.7630   96.4180 H   0  0  0  0  0  0  0  0  0  0  0  0
  146.5970  140.5110   97.9250 O   0  0  0  0  0  0  0  0  0  0  0  0
  147.0630  140.0810   97.1810 H   0  0  0  0  0  0  0  0  0  0  0  0
  141.8170  137.0880   96.7300 C   0  0  0  0  0  2  0  0  0  0  0  0
  141.5240  138.3460   96.1090 O   0  0  0  0  0  0  0  0  0  0  0  0
  141.7710  138.2590   95.1700 H   0  0  0  0  0  0  0  0  0  0  0  0
  144.8050  136.3990   96.5950 O   0  0  0  0  0  0  0  0  0  0  0  0
  145.0710  135.4560   96.6090 H   0  0  0  0  0  0  0  0  0  0  0  0
  145.4810  134.5480   98.5040 O   0  0  0  0  0  0  0  0  0  0  0  0
  145.3910  133.8810   99.2160 H   0  0  0  0  0  0  0  0  0  0  0  0
  142.8980  134.0570   99.6120 O   0  0  0  0  0  0  0  0  0  0  0  0
  143.4900  133.3440   99.3160 H   0  0  0  0  0  0  0  0  0  0  0  0
  1  7  1  6  0  0  0
  2 21  1  6  0  0  0
  2  1  1  0  0  0  0
  2  3  1  0  0  0  0
  4  5  1  0  0  0  0
  4  3  1  0  0  0  0
  4 28  1  1  0  0  0
  5 26  1  6  0  0  0
  6 24  1  6  0  0  0
  6  1  1  0  0  0  0
  6  5  1  0  0  0  0
  8  7  1  6  0  0  0
  9  8  1  0  0  0  0
 10 11  1  1  0  0  0
 10 12  1  0  0  0  0
 10  9  1  0  0  0  0
 12 15  1  6  0  0  0
 12 13  1  0  0  0  0
 13 17  1  6  0  0  0
 14 13  1  0  0  0  0
 14 19  1  1  0  0  0
 14  8  1  0  0  0  0
 16 15  1  0  0  0  0
 18 17  1  0  0  0  0
 20 19  1  0  0  0  0
 22 21  1  0  0  0  0
 23 22  1  0  0  0  0
 24 25  1  0  0  0  0
 26 27  1  0  0  0  0
 29 28  1  0  0  0  0
M  END
>  <MODEL>
7

>  <REMARK>
 VINA RESULT:      -5.1      4.511      6.776
  10 active torsions:
  status: ('A' for Active; 'I' for Inactive)
    1  A    between atoms: C_4  and  O_5 
    2  A    between atoms: O_5  and  C_6 
    3  A    between atoms: C_7  and  C_8 
    4  A    between atoms: C_8  and  O_9 
    5  A    between atoms: C_11  and  O_12 
    6  A    between atoms: C_13  and  O_14 
    7  A    between atoms: C_15  and  O_16 
    8  A    between atoms: C_17  and  O_18 
    9  A    between atoms: C_19  and  O_20 
   10  A    between atoms: C_21  and  O_22 

>  <TORSDO>
F 10

$$$$
../results/processed/lowest_conf/7XP6/docked/s4c.pdbqt
 OpenBabel07252415373D

 29 30  0  0  1  0  0  0  0  0999 V2000
  144.5700  138.0360   97.7070 C   0  0  1  0  0  3  0  0  0  0  0  0
  143.5580  139.0500   97.1350 C   0  0  2  0  0  3  0  0  0  0  0  0
  144.2180  140.2020   96.5610 O   0  0  0  0  0  0  0  0  0  0  0  0
  145.0980  140.8680   97.4530 C   0  0  1  0  0  3  0  0  0  0  0  0
  146.1960  139.9300   97.9820 C   0  0  2  0  0  3  0  0  0  0  0  0
  145.5650  138.7180   98.6630 C   0  0  1  0  0  3  0  0  0  0  0  0
  143.9400  136.9450   98.3900 O   0  0  0  0  0  0  0  0  0  0  0  0
  143.7940  135.7680   97.5920 C   0  0  2  0  0  3  0  0  0  0  0  0
  142.4900  135.6570   97.0210 O   0  0  0  0  0  0  0  0  0  0  0  0
  141.5750  134.9170   97.8360 C   0  0  1  0  0  3  0  0  0  0  0  0
  140.1870  135.0400   97.2210 C   0  0  0  0  0  1  0  0  0  0  0  0
  142.0090  133.4400   97.9440 C   0  0  1  0  0  3  0  0  0  0  0  0
  143.5400  133.3020   97.8920 C   0  0  1  0  0  3  0  0  0  0  0  0
  144.1910  134.5560   98.4670 C   0  0  1  0  0  3  0  0  0  0  0  0
  141.5160  132.8990   99.1760 O   0  0  0  0  0  0  0  0  0  0  0  0
  142.2860  132.9260   99.7860 H   0  0  0  0  0  0  0  0  0  0  0  0
  143.9440  132.1360   98.6280 O   0  0  0  0  0  0  0  0  0  0  0  0
  143.5840  132.2750   99.5300 H   0  0  0  0  0  0  0  0  0  0  0  0
  145.6180  134.3790   98.5060 O   0  0  0  0  0  0  0  0  0  0  0  0
  145.8260  134.1240   99.4270 H   0  0  0  0  0  0  0  0  0  0  0  0
  142.4460  139.4850   98.1030 C   0  0  0  0  0  2  0  0  0  0  0  0
  141.4810  138.4310   98.2260 O   0  0  0  0  0  0  0  0  0  0  0  0
  140.6880  138.7210   97.7400 H   0  0  0  0  0  0  0  0  0  0  0  0
  144.9270  139.1430   99.8770 O   0  0  0  0  0  0  0  0  0  0  0  0
  145.3450  138.6080  100.5840 H   0  0  0  0  0  0  0  0  0  0  0  0
  147.0360  140.6160   98.9250 O   0  0  0  0  0  0  0  0  0  0  0  0
  147.8160  140.0340   99.0360 H   0  0  0  0  0  0  0  0  0  0  0  0
  145.7470  141.9110   96.7330 O   0  0  0  0  0  0  0  0  0  0  0  0
  146.6980  141.7450   96.8580 H   0  0  0  0  0  0  0  0  0  0  0  0
  1  7  1  1  0  0  0
  1  6  1  0  0  0  0
  2  1  1  0  0  0  0
  2 21  1  1  0  0  0
  3  2  1  0  0  0  0
  3  4  1  0  0  0  0
  4 28  1  6  0  0  0
  4  5  1  0  0  0  0
  5  6  1  0  0  0  0
  5 26  1  1  0  0  0
  6 24  1  1  0  0  0
  8  7  1  1  0  0  0
  8 14  1  0  0  0  0
  9  8  1  0  0  0  0
  9 10  1  0  0  0  0
 10 11  1  6  0  0  0
 10 12  1  0  0  0  0
 12 15  1  1  0  0  0
 13 12  1  0  0  0  0
 13 14  1  0  0  0  0
 13 17  1  1  0  0  0
 14 19  1  6  0  0  0
 15 16  1  0  0  0  0
 17 18  1  0  0  0  0
 19 20  1  0  0  0  0
 21 22  1  0  0  0  0
 23 22  1  0  0  0  0
 24 25  1  0  0  0  0
 26 27  1  0  0  0  0
 28 29  1  0  0  0  0
M  END
>  <MODEL>
8

>  <REMARK>
 VINA RESULT:      -5.0      3.418      5.240
  10 active torsions:
  status: ('A' for Active; 'I' for Inactive)
    1  A    between atoms: C_4  and  O_5 
    2  A    between atoms: O_5  and  C_6 
    3  A    between atoms: C_7  and  C_8 
    4  A    between atoms: C_8  and  O_9 
    5  A    between atoms: C_11  and  O_12 
    6  A    between atoms: C_13  and  O_14 
    7  A    between atoms: C_15  and  O_16 
    8  A    between atoms: C_17  and  O_18 
    9  A    between atoms: C_19  and  O_20 
   10  A    between atoms: C_21  and  O_22 

>  <TORSDO>
F 10

$$$$
../results/processed/lowest_conf/7XP6/docked/s4c.pdbqt
 OpenBabel07252415373D

 29 30  0  0  1  0  0  0  0  0999 V2000
  143.6590  139.7220   97.2980 C   0  0  1  0  0  3  0  0  0  0  0  0
  143.7690  138.2560   96.8270 C   0  0  2  0  0  3  0  0  0  0  0  0
  144.0820  137.3630   97.9210 O   0  0  0  0  0  0  0  0  0  0  0  0
  145.2540  137.7170   98.6380 C   0  0  1  0  0  3  0  0  0  0  0  0
  145.1630  139.1370   99.2220 C   0  0  2  0  0  3  0  0  0  0  0  0
  144.8990  140.1440   98.1050 C   0  0  1  0  0  3  0  0  0  0  0  0
  143.4720  140.6410   96.2150 O   0  0  0  0  0  0  0  0  0  0  0  0
  142.1100  141.0220   96.0050 C   0  0  2  0  0  3  0  0  0  0  0  0
  141.4390  140.1540   95.0900 O   0  0  0  0  0  0  0  0  0  0  0  0
  141.5120  140.5990   93.7310 C   0  0  1  0  0  3  0  0  0  0  0  0
  140.9400  139.5020   92.8420 C   0  0  0  0  0  1  0  0  0  0  0  0
  140.7430  141.9240   93.5460 C   0  0  1  0  0  3  0  0  0  0  0  0
  140.8020  142.7860   94.8180 C   0  0  1  0  0  3  0  0  0  0  0  0
  142.0970  142.5060   95.5720 C   0  0  1  0  0  3  0  0  0  0  0  0
  141.3150  142.6440   92.4470 O   0  0  0  0  0  0  0  0  0  0  0  0
  140.6160  143.2770   92.1730 H   0  0  0  0  0  0  0  0  0  0  0  0
  140.7110  144.1760   94.4630 O   0  0  0  0  0  0  0  0  0  0  0  0
  141.5080  144.5860   94.8600 H   0  0  0  0  0  0  0  0  0  0  0  0
  142.1920  143.3860   96.7060 O   0  0  0  0  0  0  0  0  0  0  0  0
  143.0590  143.1960   97.1150 H   0  0  0  0  0  0  0  0  0  0  0  0
  144.7170  138.0180   95.6400 C   0  0  0  0  0  2  0  0  0  0  0  0
  144.1400  138.5700   94.4500 O   0  0  0  0  0  0  0  0  0  0  0  0
  144.7320  139.2870   94.1590 H   0  0  0  0  0  0  0  0  0  0  0  0
  146.0660  140.2380   97.2740 O   0  0  0  0  0  0  0  0  0  0  0  0
  146.7450  139.6960   97.7280 H   0  0  0  0  0  0  0  0  0  0  0  0
  146.3840  139.4860   99.8930 O   0  0  0  0  0  0  0  0  0  0  0  0
  146.1120  140.1030  100.6050 H   0  0  0  0  0  0  0  0  0  0  0  0
  145.3840  136.8190   99.7360 O   0  0  0  0  0  0  0  0  0  0  0  0
  144.7920  136.0760   99.5210 H   0  0  0  0  0  0  0  0  0  0  0  0
  1  7  1  6  0  0  0
  1  6  1  0  0  0  0
  2 21  1  6  0  0  0
  2  1  1  0  0  0  0
  2  3  1  0  0  0  0
  3  4  1  0  0  0  0
  4  5  1  0  0  0  0
  4 28  1  1  0  0  0
  5 26  1  6  0  0  0
  6 24  1  6  0  0  0
  6  5  1  0  0  0  0
  8  7  1  6  0  0  0
  9  8  1  0  0  0  0
 10 11  1  6  0  0  0
 10  9  1  0  0  0  0
 12 15  1  6  0  0  0
 12 10  1  0  0  0  0
 12 13  1  0  0  0  0
 13 17  1  6  0  0  0
 13 14  1  0  0  0  0
 14  8  1  0  0  0  0
 14 19  1  1  0  0  0
 16 15  1  0  0  0  0
 17 18  1  0  0  0  0
 19 20  1  0  0  0  0
 22 21  1  0  0  0  0
 23 22  1  0  0  0  0
 24 25  1  0  0  0  0
 26 27  1  0  0  0  0
 29 28  1  0  0  0  0
M  END
>  <MODEL>
9

>  <REMARK>
 VINA RESULT:      -4.9      4.748      6.786
  10 active torsions:
  status: ('A' for Active; 'I' for Inactive)
    1  A    between atoms: C_4  and  O_5 
    2  A    between atoms: O_5  and  C_6 
    3  A    between atoms: C_7  and  C_8 
    4  A    between atoms: C_8  and  O_9 
    5  A    between atoms: C_11  and  O_12 
    6  A    between atoms: C_13  and  O_14 
    7  A    between atoms: C_15  and  O_16 
    8  A    between atoms: C_17  and  O_18 
    9  A    between atoms: C_19  and  O_20 
   10  A    between atoms: C_21  and  O_22 

>  <TORSDO>
F 10

$$$$
