../results/processed/lowest_conf/7XP6/docked/s5.pdbqt
 OpenBabel07252415363D

 12 12  0  0  1  0  0  0  0  0999 V2000
  139.5070  139.1790  108.5260 C   0  0  1  0  0  3  0  0  0  0  0  0
  138.8670  138.3890  109.5570 O   0  0  0  0  0  0  0  0  0  0  0  0
  139.7740  137.3550  109.9380 C   0  0  2  0  0  3  0  0  0  0  0  0
  141.1420  137.7550  109.4290 C   0  0  0  0  0  2  0  0  0  0  0  0
  140.7840  138.4450  108.1320 C   0  0  2  0  0  3  0  0  0  0  0  0
  138.5390  139.3560  107.3610 C   0  0  0  0  0  2  0  0  0  0  0  0
  137.3680  138.5660  107.5810 O   0  0  0  0  0  0  0  0  0  0  0  0
  137.5600  138.0330  108.3770 H   0  0  0  0  0  0  0  0  0  0  0  0
  141.8060  139.3290  107.7040 O   0  0  0  0  0  0  0  0  0  0  0  0
  142.5310  139.2740  108.3510 H   0  0  0  0  0  0  0  0  0  0  0  0
  139.3700  136.1590  109.3010 O   0  0  0  0  0  0  0  0  0  0  0  0
  138.4000  136.1450  109.3840 H   0  0  0  0  0  0  0  0  0  0  0  0
  1  6  1  6  0  0  0
  1  2  1  0  0  0  0
  2  3  1  0  0  0  0
  3 11  1  6  0  0  0
  4  3  1  0  0  0  0
  5  9  1  1  0  0  0
  5  1  1  0  0  0  0
  5  4  1  0  0  0  0
  6  7  1  0  0  0  0
  7  8  1  0  0  0  0
  9 10  1  0  0  0  0
 11 12  1  0  0  0  0
M  END
>  <MODEL>
1

>  <REMARK>
 VINA RESULT:      -5.2      0.000      0.000
  4 active torsions:
  status: ('A' for Active; 'I' for Inactive)
    1  A    between atoms: O_1  and  C_2 
    2  A    between atoms: C_2  and  C_3 
    3  A    between atoms: C_5  and  O_9 
    4  A    between atoms: C_7  and  O_8 

>  <TORSDO>
F 4

$$$$
../results/processed/lowest_conf/7XP6/docked/s5.pdbqt
 OpenBabel07252415363D

 12 12  0  0  1  0  0  0  0  0999 V2000
  132.6550  128.7650   93.1740 C   0  0  1  0  0  3  0  0  0  0  0  0
  133.4710  129.9620   93.1570 O   0  0  0  0  0  0  0  0  0  0  0  0
  134.3030  129.9360   94.3160 C   0  0  2  0  0  3  0  0  0  0  0  0
  134.2910  128.5150   94.8390 C   0  0  0  0  0  2  0  0  0  0  0  0
  132.8730  128.0980   94.5270 C   0  0  2  0  0  3  0  0  0  0  0  0
  131.1990  129.1520   92.9290 C   0  0  0  0  0  2  0  0  0  0  0  0
  130.3590  128.5020   93.8870 O   0  0  0  0  0  0  0  0  0  0  0  0
  129.7430  129.1910   94.2020 H   0  0  0  0  0  0  0  0  0  0  0  0
  132.7380  126.6880   94.4630 O   0  0  0  0  0  0  0  0  0  0  0  0
  131.7860  126.4840   94.4610 H   0  0  0  0  0  0  0  0  0  0  0  0
  133.7340  130.7940   95.2850 O   0  0  0  0  0  0  0  0  0  0  0  0
  133.7880  130.3000   96.1220 H   0  0  0  0  0  0  0  0  0  0  0  0
  1  6  1  1  0  0  0
  1  5  1  0  0  0  0
  2  1  1  0  0  0  0
  2  3  1  0  0  0  0
  3  4  1  0  0  0  0
  3 11  1  1  0  0  0
  5  9  1  6  0  0  0
  5  4  1  0  0  0  0
  6  7  1  0  0  0  0
  7  8  1  0  0  0  0
 10  9  1  0  0  0  0
 11 12  1  0  0  0  0
M  END
>  <MODEL>
2

>  <REMARK>
 VINA RESULT:      -4.0     17.643     18.761
  4 active torsions:
  status: ('A' for Active; 'I' for Inactive)
    1  A    between atoms: O_1  and  C_2 
    2  A    between atoms: C_2  and  C_3 
    3  A    between atoms: C_5  and  O_9 
    4  A    between atoms: C_7  and  O_8 

>  <TORSDO>
F 4

$$$$
../results/processed/lowest_conf/7XP6/docked/s5.pdbqt
 OpenBabel07252415363D

 12 12  0  0  1  0  0  0  0  0999 V2000
  134.5730  129.4740   95.3300 C   0  0  1  0  0  3  0  0  0  0  0  0
  134.0440  128.1480   95.0830 O   0  0  0  0  0  0  0  0  0  0  0  0
  133.2470  128.2120   93.9010 C   0  0  2  0  0  3  0  0  0  0  0  0
  133.6160  129.4950   93.1860 C   0  0  0  0  0  2  0  0  0  0  0  0
  133.8810  130.4180   94.3530 C   0  0  2  0  0  3  0  0  0  0  0  0
  134.3260  129.8430   96.7900 C   0  0  0  0  0  2  0  0  0  0  0  0
  133.6370  131.0940   96.8620 O   0  0  0  0  0  0  0  0  0  0  0  0
  133.1870  131.1930   96.0010 H   0  0  0  0  0  0  0  0  0  0  0  0
  134.7030  131.5130   93.9860 O   0  0  0  0  0  0  0  0  0  0  0  0
  134.3020  132.3180   94.3590 H   0  0  0  0  0  0  0  0  0  0  0  0
  131.8890  128.2700   94.2900 O   0  0  0  0  0  0  0  0  0  0  0  0
  131.6220  127.3410   94.4090 H   0  0  0  0  0  0  0  0  0  0  0  0
  1  6  1  1  0  0  0
  2  1  1  0  0  0  0
  3 11  1  1  0  0  0
  3  2  1  0  0  0  0
  4  3  1  0  0  0  0
  4  5  1  0  0  0  0
  5  9  1  6  0  0  0
  5  1  1  0  0  0  0
  6  7  1  0  0  0  0
  8  7  1  0  0  0  0
  9 10  1  0  0  0  0
 11 12  1  0  0  0  0
M  END
>  <MODEL>
3

>  <REMARK>
 VINA RESULT:      -3.9     16.396     17.487
  4 active torsions:
  status: ('A' for Active; 'I' for Inactive)
    1  A    between atoms: O_1  and  C_2 
    2  A    between atoms: C_2  and  C_3 
    3  A    between atoms: C_5  and  O_9 
    4  A    between atoms: C_7  and  O_8 

>  <TORSDO>
F 4

$$$$
../results/processed/lowest_conf/7XP6/docked/s5.pdbqt
 OpenBabel07252415363D

 12 12  0  0  1  0  0  0  0  0999 V2000
  132.5170  129.3290   93.2280 C   0  0  1  0  0  3  0  0  0  0  0  0
  132.2340  128.6890   94.4960 O   0  0  0  0  0  0  0  0  0  0  0  0
  133.2280  127.6880   94.7090 C   0  0  2  0  0  3  0  0  0  0  0  0
  134.3690  127.9860   93.7590 C   0  0  0  0  0  2  0  0  0  0  0  0
  133.6220  128.5180   92.5580 C   0  0  2  0  0  3  0  0  0  0  0  0
  131.2370  129.3840   92.4010 C   0  0  0  0  0  2  0  0  0  0  0  0
  130.1850  128.7080   93.0930 O   0  0  0  0  0  0  0  0  0  0  0  0
  129.4280  128.7030   92.4760 H   0  0  0  0  0  0  0  0  0  0  0  0
  134.4520  129.3160   91.7300 O   0  0  0  0  0  0  0  0  0  0  0  0
  135.2690  129.5020   92.2260 H   0  0  0  0  0  0  0  0  0  0  0  0
  132.6650  126.4330   94.3810 O   0  0  0  0  0  0  0  0  0  0  0  0
  132.7980  125.8830   95.1730 H   0  0  0  0  0  0  0  0  0  0  0  0
  1  6  1  6  0  0  0
  1  2  1  0  0  0  0
  2  3  1  0  0  0  0
  3 11  1  6  0  0  0
  4  3  1  0  0  0  0
  5  9  1  6  0  0  0
  5  1  1  0  0  0  0
  5  4  1  0  0  0  0
  6  7  1  0  0  0  0
  8  7  1  0  0  0  0
  9 10  1  0  0  0  0
 11 12  1  0  0  0  0
M  END
>  <MODEL>
4

>  <REMARK>
 VINA RESULT:      -3.9     18.720     19.434
  4 active torsions:
  status: ('A' for Active; 'I' for Inactive)
    1  A    between atoms: O_1  and  C_2 
    2  A    between atoms: C_2  and  C_3 
    3  A    between atoms: C_5  and  O_9 
    4  A    between atoms: C_7  and  O_8 

>  <TORSDO>
F 4

$$$$
../results/processed/lowest_conf/7XP6/docked/s5.pdbqt
 OpenBabel07252415363D

 12 12  0  0  1  0  0  0  0  0999 V2000
  145.6150  137.5790   98.9370 C   0  0  1  0  0  3  0  0  0  0  0  0
  145.2850  138.7730   98.1880 O   0  0  0  0  0  0  0  0  0  0  0  0
  145.5380  139.8980   99.0290 C   0  0  2  0  0  3  0  0  0  0  0  0
  146.4160  139.4140  100.1640 C   0  0  0  0  0  2  0  0  0  0  0  0
  145.8830  138.0150  100.3740 C   0  0  2  0  0  3  0  0  0  0  0  0
  144.4630  136.5850   98.8230 C   0  0  0  0  0  2  0  0  0  0  0  0
  144.8870  135.2980   99.2780 O   0  0  0  0  0  0  0  0  0  0  0  0
  145.6510  135.4680   99.8630 H   0  0  0  0  0  0  0  0  0  0  0  0
  146.8270  137.1820  101.0250 O   0  0  0  0  0  0  0  0  0  0  0  0
  147.2380  137.7050  101.7360 H   0  0  0  0  0  0  0  0  0  0  0  0
  144.3020  140.3420   99.5520 O   0  0  0  0  0  0  0  0  0  0  0  0
  144.4850  141.2290   99.9100 H   0  0  0  0  0  0  0  0  0  0  0  0
  1  6  1  1  0  0  0
  1  5  1  0  0  0  0
  2  1  1  0  0  0  0
  2  3  1  0  0  0  0
  3 11  1  1  0  0  0
  3  4  1  0  0  0  0
  4  5  1  0  0  0  0
  5  9  1  6  0  0  0
  6  7  1  0  0  0  0
  7  8  1  0  0  0  0
  9 10  1  0  0  0  0
 11 12  1  0  0  0  0
M  END
>  <MODEL>
5

>  <REMARK>
 VINA RESULT:      -3.8     10.441     11.190
  4 active torsions:
  status: ('A' for Active; 'I' for Inactive)
    1  A    between atoms: O_1  and  C_2 
    2  A    between atoms: C_2  and  C_3 
    3  A    between atoms: C_5  and  O_9 
    4  A    between atoms: C_7  and  O_8 

>  <TORSDO>
F 4

$$$$
../results/processed/lowest_conf/7XP6/docked/s5.pdbqt
 OpenBabel07252415363D

 12 12  0  0  1  0  0  0  0  0999 V2000
  142.6190  132.4360   98.5350 C   0  0  1  0  0  3  0  0  0  0  0  0
  141.7530  132.2280   97.3930 O   0  0  0  0  0  0  0  0  0  0  0  0
  141.0880  133.4600   97.1210 C   0  0  2  0  0  3  0  0  0  0  0  0
  141.8530  134.5470   97.8480 C   0  0  0  0  0  2  0  0  0  0  0  0
  142.2900  133.8150   99.0960 C   0  0  2  0  0  3  0  0  0  0  0  0
  142.3910  131.3140   99.5430 C   0  0  0  0  0  2  0  0  0  0  0  0
  143.3630  131.3990  100.5890 O   0  0  0  0  0  0  0  0  0  0  0  0
  144.0730  131.9700  100.2380 H   0  0  0  0  0  0  0  0  0  0  0  0
  143.4120  134.4320   99.7050 O   0  0  0  0  0  0  0  0  0  0  0  0
  143.5340  134.0210  100.5790 H   0  0  0  0  0  0  0  0  0  0  0  0
  139.7790  133.3780   97.6500 O   0  0  0  0  0  0  0  0  0  0  0  0
  139.8950  133.4140   98.6160 H   0  0  0  0  0  0  0  0  0  0  0  0
  1  5  1  0  0  0  0
  1  6  1  1  0  0  0
  2  1  1  0  0  0  0
  3  2  1  0  0  0  0
  3 11  1  1  0  0  0
  3  4  1  0  0  0  0
  4  5  1  0  0  0  0
  5  9  1  6  0  0  0
  6  7  1  0  0  0  0
  8  7  1  0  0  0  0
  9 10  1  0  0  0  0
 11 12  1  0  0  0  0
M  END
>  <MODEL>
6

>  <REMARK>
 VINA RESULT:      -3.8     11.183     11.980
  4 active torsions:
  status: ('A' for Active; 'I' for Inactive)
    1  A    between atoms: O_1  and  C_2 
    2  A    between atoms: C_2  and  C_3 
    3  A    between atoms: C_5  and  O_9 
    4  A    between atoms: C_7  and  O_8 

>  <TORSDO>
F 4

$$$$
../results/processed/lowest_conf/7XP6/docked/s5.pdbqt
 OpenBabel07252415363D

 12 12  0  0  1  0  0  0  0  0999 V2000
  145.3270  138.0830  100.0570 C   0  0  1  0  0  3  0  0  0  0  0  0
  144.8850  139.3480   99.5090 O   0  0  0  0  0  0  0  0  0  0  0  0
  144.3660  139.0980   98.2030 C   0  0  2  0  0  3  0  0  0  0  0  0
  144.1130  137.6090   98.1030 C   0  0  0  0  0  2  0  0  0  0  0  0
  145.2540  137.0600   98.9290 C   0  0  2  0  0  3  0  0  0  0  0  0
  146.7360  138.2490  100.6180 C   0  0  0  0  0  2  0  0  0  0  0  0
  147.1230  137.0610  101.3130 O   0  0  0  0  0  0  0  0  0  0  0  0
  146.6660  137.1030  102.1750 H   0  0  0  0  0  0  0  0  0  0  0  0
  144.9830  135.7510   99.4020 O   0  0  0  0  0  0  0  0  0  0  0  0
  145.4580  135.6400  100.2450 H   0  0  0  0  0  0  0  0  0  0  0  0
  145.3540  139.4670   97.2600 O   0  0  0  0  0  0  0  0  0  0  0  0
  146.1990  139.3860   97.7370 H   0  0  0  0  0  0  0  0  0  0  0  0
  1  6  1  6  0  0  0
  2  1  1  0  0  0  0
  3 11  1  6  0  0  0
  3  2  1  0  0  0  0
  4  3  1  0  0  0  0
  4  5  1  0  0  0  0
  5  9  1  1  0  0  0
  5  1  1  0  0  0  0
  6  7  1  0  0  0  0
  7  8  1  0  0  0  0
  9 10  1  0  0  0  0
 11 12  1  0  0  0  0
M  END
>  <MODEL>
7

>  <REMARK>
 VINA RESULT:      -3.8     10.474     11.473
  4 active torsions:
  status: ('A' for Active; 'I' for Inactive)
    1  A    between atoms: O_1  and  C_2 
    2  A    between atoms: C_2  and  C_3 
    3  A    between atoms: C_5  and  O_9 
    4  A    between atoms: C_7  and  O_8 

>  <TORSDO>
F 4

$$$$
../results/processed/lowest_conf/7XP6/docked/s5.pdbqt
 OpenBabel07252415363D

 12 12  0  0  1  0  0  0  0  0999 V2000
  153.1370  126.9200  101.5950 C   0  0  1  0  0  3  0  0  0  0  0  0
  154.2630  127.7630  101.9420 O   0  0  0  0  0  0  0  0  0  0  0  0
  153.7630  129.0760  102.1910 C   0  0  2  0  0  3  0  0  0  0  0  0
  152.2680  128.9500  102.3950 C   0  0  0  0  0  2  0  0  0  0  0  0
  151.9300  127.8380  101.4290 C   0  0  2  0  0  3  0  0  0  0  0  0
  153.4700  126.1410  100.3260 C   0  0  0  0  0  2  0  0  0  0  0  0
  152.3620  126.1900   99.4240 O   0  0  0  0  0  0  0  0  0  0  0  0
  151.5670  126.0960   99.9830 H   0  0  0  0  0  0  0  0  0  0  0  0
  150.7120  127.1960  101.7660 O   0  0  0  0  0  0  0  0  0  0  0  0
  150.5360  126.5250  101.0840 H   0  0  0  0  0  0  0  0  0  0  0  0
  154.0120  129.8640  101.0440 O   0  0  0  0  0  0  0  0  0  0  0  0
  154.3090  129.2340  100.3640 H   0  0  0  0  0  0  0  0  0  0  0  0
  1  6  1  6  0  0  0
  1  2  1  0  0  0  0
  2  3  1  0  0  0  0
  3 11  1  6  0  0  0
  3  4  1  0  0  0  0
  5  1  1  0  0  0  0
  5  9  1  1  0  0  0
  5  4  1  0  0  0  0
  7  8  1  0  0  0  0
  7  6  1  0  0  0  0
 10  9  1  0  0  0  0
 12 11  1  0  0  0  0
M  END
>  <MODEL>
8

>  <REMARK>
 VINA RESULT:      -3.7     17.411     18.632
  4 active torsions:
  status: ('A' for Active; 'I' for Inactive)
    1  A    between atoms: O_1  and  C_2 
    2  A    between atoms: C_2  and  C_3 
    3  A    between atoms: C_5  and  O_9 
    4  A    between atoms: C_7  and  O_8 

>  <TORSDO>
F 4

$$$$
../results/processed/lowest_conf/7XP6/docked/s5.pdbqt
 OpenBabel07252415363D

 12 12  0  0  1  0  0  0  0  0999 V2000
  141.8140  142.0230   94.7200 C   0  0  1  0  0  3  0  0  0  0  0  0
  142.7520  141.9250   95.8190 O   0  0  0  0  0  0  0  0  0  0  0  0
  142.3440  142.8510   96.8240 C   0  0  2  0  0  3  0  0  0  0  0  0
  140.9110  143.2340   96.5180 C   0  0  0  0  0  2  0  0  0  0  0  0
  140.9180  143.2230   95.0070 C   0  0  2  0  0  3  0  0  0  0  0  0
  142.5890  142.1580   93.4130 C   0  0  0  0  0  2  0  0  0  0  0  0
  141.7260  142.6570   92.3890 O   0  0  0  0  0  0  0  0  0  0  0  0
  141.7210  143.6270   92.5020 H   0  0  0  0  0  0  0  0  0  0  0  0
  139.6150  143.0660   94.4730 O   0  0  0  0  0  0  0  0  0  0  0  0
  138.9820  143.3570   95.1530 H   0  0  0  0  0  0  0  0  0  0  0  0
  143.1640  143.9990   96.7230 O   0  0  0  0  0  0  0  0  0  0  0  0
  143.9030  143.7290   96.1490 H   0  0  0  0  0  0  0  0  0  0  0  0
  1  6  1  6  0  0  0
  1  5  1  0  0  0  0
  1  2  1  0  0  0  0
  2  3  1  0  0  0  0
  3 11  1  6  0  0  0
  4  3  1  0  0  0  0
  5  9  1  1  0  0  0
  5  4  1  0  0  0  0
  7  8  1  0  0  0  0
  7  6  1  0  0  0  0
  9 10  1  0  0  0  0
 12 11  1  0  0  0  0
M  END
>  <MODEL>
9

>  <REMARK>
 VINA RESULT:      -3.7     13.354     14.660
  4 active torsions:
  status: ('A' for Active; 'I' for Inactive)
    1  A    between atoms: O_1  and  C_2 
    2  A    between atoms: C_2  and  C_3 
    3  A    between atoms: C_5  and  O_9 
    4  A    between atoms: C_7  and  O_8 

>  <TORSDO>
F 4

$$$$
