../results/processed/lowest_conf/7XP6/docked/s5c.pdbqt
 OpenBabel07252415373D

 16 15  0  0  1  0  0  0  0  0999 V2000
  139.4770  137.5010  109.2640 C   0  0  2  0  0  3  0  0  0  0  0  0
  140.0370  138.3140  110.4490 C   0  0  0  0  0  3  0  0  0  0  0  0
  141.4560  137.8550  110.8210 C   0  0  0  0  0  2  0  0  0  0  0  0
  142.4390  138.5360  110.0520 O   0  0  0  0  0  0  0  0  0  0  0  0
  143.0580  137.8510  109.7350 H   0  0  0  0  0  0  0  0  0  0  0  0
  139.1330  138.2210  111.6820 C   0  0  0  0  0  2  0  0  0  0  0  0
  137.7860  137.9950  111.2850 O   0  0  0  0  0  0  0  0  0  0  0  0
  137.3650  138.8700  111.2060 H   0  0  0  0  0  0  0  0  0  0  0  0
  140.2420  136.2870  109.1250 O   0  0  0  0  0  0  0  0  0  0  0  0
  141.1490  136.6010  108.9120 H   0  0  0  0  0  0  0  0  0  0  0  0
  139.4490  138.2000  107.8920 C   0  0  2  0  0  3  0  0  0  0  0  0
  140.2260  139.4160  108.0250 O   0  0  0  0  0  0  0  0  0  0  0  0
  141.1390  139.0910  108.1780 H   0  0  0  0  0  0  0  0  0  0  0  0
  138.0510  138.6070  107.4120 C   0  0  0  0  0  2  0  0  0  0  0  0
  137.0980  138.1530  108.3830 O   0  0  0  0  0  0  0  0  0  0  0  0
  136.2490  138.0680  107.9130 H   0  0  0  0  0  0  0  0  0  0  0  0
  1  9  1  6  0  0  0
  1  2  1  0  0  0  0
  2  3  1  0  0  0  0
  2  6  1  0  0  0  0
  4  3  1  0  0  0  0
  5  4  1  0  0  0  0
  7  6  1  0  0  0  0
  8  7  1  0  0  0  0
 10  9  1  0  0  0  0
 11 14  1  1  0  0  0
 11 12  1  0  0  0  0
 11  1  1  0  0  0  0
 12 13  1  0  0  0  0
 14 15  1  0  0  0  0
 16 15  1  0  0  0  0
M  END
>  <MODEL>
1

>  <REMARK>
 VINA RESULT:      -4.7      0.000      0.000
  10 active torsions:
  status: ('A' for Active; 'I' for Inactive)
    1  A    between atoms: O_1  and  C_2 
    2  A    between atoms: C_2  and  C_3 
    3  A    between atoms: C_3  and  C_4 
    4  A    between atoms: C_3  and  C_6 
    5  A    between atoms: C_4  and  O_5 
    6  A    between atoms: C_6  and  O_7 
    7  A    between atoms: C_6  and  C_8 
    8  A    between atoms: C_8  and  O_9 
    9  A    between atoms: C_8  and  C_10 
   10  A    between atoms: C_10  and  O_11 

>  <TORSDO>
F 10

$$$$
../results/processed/lowest_conf/7XP6/docked/s5c.pdbqt
 OpenBabel07252415373D

 16 15  0  0  1  0  0  0  0  0999 V2000
  139.8230  137.4970  109.5690 C   0  0  2  0  0  3  0  0  0  0  0  0
  139.8260  137.9730  108.1020 C   0  0  0  0  0  3  0  0  0  0  0  0
  141.0180  138.9000  107.8170 C   0  0  0  0  0  2  0  0  0  0  0  0
  142.0040  138.8040  108.8370 O   0  0  0  0  0  0  0  0  0  0  0  0
  142.2180  137.8550  108.9200 H   0  0  0  0  0  0  0  0  0  0  0  0
  138.5240  138.6910  107.7340 C   0  0  0  0  0  2  0  0  0  0  0  0
  137.4250  137.7930  107.8340 O   0  0  0  0  0  0  0  0  0  0  0  0
  136.6580  138.3190  108.1240 H   0  0  0  0  0  0  0  0  0  0  0  0
  139.1460  136.2280  109.6490 O   0  0  0  0  0  0  0  0  0  0  0  0
  139.8640  135.5670  109.5360 H   0  0  0  0  0  0  0  0  0  0  0  0
  139.1800  138.4390  110.6050 C   0  0  2  0  0  3  0  0  0  0  0  0
  140.2460  138.8990  111.4730 O   0  0  0  0  0  0  0  0  0  0  0  0
  141.0570  138.7530  110.9400 H   0  0  0  0  0  0  0  0  0  0  0  0
  138.1230  137.7800  111.4980 C   0  0  0  0  0  2  0  0  0  0  0  0
  136.8650  137.8330  110.8110 O   0  0  0  0  0  0  0  0  0  0  0  0
  136.4110  138.6320  111.1350 H   0  0  0  0  0  0  0  0  0  0  0  0
  1  2  1  6  0  0  0
  1  9  1  0  0  0  0
  1 11  1  0  0  0  0
  3  2  1  0  0  0  0
  3  4  1  0  0  0  0
  4  5  1  0  0  0  0
  6  7  1  0  0  0  0
  6  2  1  0  0  0  0
  7  8  1  0  0  0  0
 10  9  1  0  0  0  0
 11 12  1  0  0  0  0
 11 14  1  1  0  0  0
 13 12  1  0  0  0  0
 15 16  1  0  0  0  0
 15 14  1  0  0  0  0
M  END
>  <MODEL>
2

>  <REMARK>
 VINA RESULT:      -4.7      1.262      2.872
  10 active torsions:
  status: ('A' for Active; 'I' for Inactive)
    1  A    between atoms: O_1  and  C_2 
    2  A    between atoms: C_2  and  C_3 
    3  A    between atoms: C_3  and  C_4 
    4  A    between atoms: C_3  and  C_6 
    5  A    between atoms: C_4  and  O_5 
    6  A    between atoms: C_6  and  O_7 
    7  A    between atoms: C_6  and  C_8 
    8  A    between atoms: C_8  and  O_9 
    9  A    between atoms: C_8  and  C_10 
   10  A    between atoms: C_10  and  O_11 

>  <TORSDO>
F 10

$$$$
../results/processed/lowest_conf/7XP6/docked/s5c.pdbqt
 OpenBabel07252415373D

 16 15  0  0  1  0  0  0  0  0999 V2000
  139.5260  137.6180  108.6340 C   0  0  2  0  0  3  0  0  0  0  0  0
  139.8830  137.3900  110.1180 C   0  0  0  0  0  3  0  0  0  0  0  0
  139.2610  138.4700  111.0160 C   0  0  0  0  0  2  0  0  0  0  0  0
  137.9780  138.0760  111.4870 O   0  0  0  0  0  0  0  0  0  0  0  0
  137.5270  137.6570  110.7290 H   0  0  0  0  0  0  0  0  0  0  0  0
  141.3990  137.3550  110.3390 C   0  0  0  0  0  2  0  0  0  0  0  0
  141.9930  138.5510  109.8490 O   0  0  0  0  0  0  0  0  0  0  0  0
  142.7160  138.7770  110.4610 H   0  0  0  0  0  0  0  0  0  0  0  0
  140.6370  137.2020  107.8150 O   0  0  0  0  0  0  0  0  0  0  0  0
  140.8720  138.0090  107.3060 H   0  0  0  0  0  0  0  0  0  0  0  0
  139.1480  139.0540  108.2220 C   0  0  2  0  0  3  0  0  0  0  0  0
  137.7760  139.0100  107.7590 O   0  0  0  0  0  0  0  0  0  0  0  0
  137.4910  139.9490  107.7900 H   0  0  0  0  0  0  0  0  0  0  0  0
  139.9920  139.6320  107.0810 C   0  0  0  0  0  2  0  0  0  0  0  0
  141.3190  139.8540  107.5780 O   0  0  0  0  0  0  0  0  0  0  0  0
  141.7130  138.9730  107.7090 H   0  0  0  0  0  0  0  0  0  0  0  0
  1  9  1  6  0  0  0
  1  2  1  0  0  0  0
  2  6  1  0  0  0  0
  2  3  1  0  0  0  0
  3  4  1  0  0  0  0
  5  4  1  0  0  0  0
  7  6  1  0  0  0  0
  7  8  1  0  0  0  0
 10  9  1  0  0  0  0
 11 14  1  6  0  0  0
 11  1  1  0  0  0  0
 12 13  1  0  0  0  0
 12 11  1  0  0  0  0
 14 15  1  0  0  0  0
 15 16  1  0  0  0  0
M  END
>  <MODEL>
3

>  <REMARK>
 VINA RESULT:      -4.5      1.064      2.903
  10 active torsions:
  status: ('A' for Active; 'I' for Inactive)
    1  A    between atoms: O_1  and  C_2 
    2  A    between atoms: C_2  and  C_3 
    3  A    between atoms: C_3  and  C_4 
    4  A    between atoms: C_3  and  C_6 
    5  A    between atoms: C_4  and  O_5 
    6  A    between atoms: C_6  and  O_7 
    7  A    between atoms: C_6  and  C_8 
    8  A    between atoms: C_8  and  O_9 
    9  A    between atoms: C_8  and  C_10 
   10  A    between atoms: C_10  and  O_11 

>  <TORSDO>
F 10

$$$$
../results/processed/lowest_conf/7XP6/docked/s5c.pdbqt
 OpenBabel07252415373D

 16 15  0  0  1  0  0  0  0  0999 V2000
  140.4480  138.2270  108.5730 C   0  0  2  0  0  3  0  0  0  0  0  0
  139.3880  139.2180  108.0470 C   0  0  0  0  0  3  0  0  0  0  0  0
  138.1510  138.4810  107.5110 C   0  0  0  0  0  2  0  0  0  0  0  0
  137.4130  137.8730  108.5640 O   0  0  0  0  0  0  0  0  0  0  0  0
  136.7440  138.5290  108.8400 H   0  0  0  0  0  0  0  0  0  0  0  0
  139.9530  140.1280  106.9520 C   0  0  0  0  0  2  0  0  0  0  0  0
  141.3710  140.0210  106.9090 O   0  0  0  0  0  0  0  0  0  0  0  0
  141.6530  140.3680  106.0450 H   0  0  0  0  0  0  0  0  0  0  0  0
  140.4060  137.0290  107.7730 O   0  0  0  0  0  0  0  0  0  0  0  0
  139.4860  137.0040  107.4300 H   0  0  0  0  0  0  0  0  0  0  0  0
  140.3390  137.8110  110.0520 C   0  0  2  0  0  3  0  0  0  0  0  0
  139.4940  138.7930  110.7030 O   0  0  0  0  0  0  0  0  0  0  0  0
  139.8940  139.6510  110.4410 H   0  0  0  0  0  0  0  0  0  0  0  0
  141.6710  137.7890  110.8080 C   0  0  0  0  0  2  0  0  0  0  0  0
  142.5990  138.6230  110.1000 O   0  0  0  0  0  0  0  0  0  0  0  0
  143.4460  138.1420  110.0900 H   0  0  0  0  0  0  0  0  0  0  0  0
  1  9  1  6  0  0  0
  1 11  1  0  0  0  0
  2  1  1  0  0  0  0
  3  2  1  0  0  0  0
  3  4  1  0  0  0  0
  4  5  1  0  0  0  0
  6  2  1  0  0  0  0
  7  6  1  0  0  0  0
  8  7  1  0  0  0  0
 10  9  1  0  0  0  0
 11 12  1  0  0  0  0
 11 14  1  1  0  0  0
 13 12  1  0  0  0  0
 15 14  1  0  0  0  0
 16 15  1  0  0  0  0
M  END
>  <MODEL>
4

>  <REMARK>
 VINA RESULT:      -4.4      1.259      4.229
  10 active torsions:
  status: ('A' for Active; 'I' for Inactive)
    1  A    between atoms: O_1  and  C_2 
    2  A    between atoms: C_2  and  C_3 
    3  A    between atoms: C_3  and  C_4 
    4  A    between atoms: C_3  and  C_6 
    5  A    between atoms: C_4  and  O_5 
    6  A    between atoms: C_6  and  O_7 
    7  A    between atoms: C_6  and  C_8 
    8  A    between atoms: C_8  and  O_9 
    9  A    between atoms: C_8  and  C_10 
   10  A    between atoms: C_10  and  O_11 

>  <TORSDO>
F 10

$$$$
../results/processed/lowest_conf/7XP6/docked/s5c.pdbqt
 OpenBabel07252415373D

 16 15  0  0  1  0  0  0  0  0999 V2000
  143.2420  133.1260   98.4780 C   0  0  2  0  0  3  0  0  0  0  0  0
  142.6490  132.0100   99.3630 C   0  0  0  0  0  3  0  0  0  0  0  0
  143.6860  130.9130   99.6490 C   0  0  0  0  0  2  0  0  0  0  0  0
  143.2770  130.0840  100.7300 O   0  0  0  0  0  0  0  0  0  0  0  0
  144.0120  130.0960  101.3730 H   0  0  0  0  0  0  0  0  0  0  0  0
  141.4040  131.3820   98.7290 C   0  0  0  0  0  2  0  0  0  0  0  0
  140.4880  132.3980   98.3380 O   0  0  0  0  0  0  0  0  0  0  0  0
  140.7720  133.2180   98.7800 H   0  0  0  0  0  0  0  0  0  0  0  0
  144.6570  132.9000   98.3250 O   0  0  0  0  0  0  0  0  0  0  0  0
  145.0270  133.7990   98.1760 H   0  0  0  0  0  0  0  0  0  0  0  0
  143.0460  134.5760   98.9610 C   0  0  2  0  0  3  0  0  0  0  0  0
  141.7600  135.0160   98.4580 O   0  0  0  0  0  0  0  0  0  0  0  0
  141.5680  134.3840   97.7320 H   0  0  0  0  0  0  0  0  0  0  0  0
  144.0950  135.5670   98.4460 C   0  0  0  0  0  2  0  0  0  0  0  0
  145.1840  135.5880   99.3790 O   0  0  0  0  0  0  0  0  0  0  0  0
  145.6620  134.7470   99.2600 H   0  0  0  0  0  0  0  0  0  0  0  0
  1  9  1  1  0  0  0
  1 11  1  0  0  0  0
  1  2  1  0  0  0  0
  2  3  1  0  0  0  0
  3  4  1  0  0  0  0
  4  5  1  0  0  0  0
  6  2  1  0  0  0  0
  7  6  1  0  0  0  0
  7  8  1  0  0  0  0
 10  9  1  0  0  0  0
 11 14  1  6  0  0  0
 12 11  1  0  0  0  0
 13 12  1  0  0  0  0
 14 15  1  0  0  0  0
 16 15  1  0  0  0  0
M  END
>  <MODEL>
5

>  <REMARK>
 VINA RESULT:      -3.9     11.777     12.533
  10 active torsions:
  status: ('A' for Active; 'I' for Inactive)
    1  A    between atoms: O_1  and  C_2 
    2  A    between atoms: C_2  and  C_3 
    3  A    between atoms: C_3  and  C_4 
    4  A    between atoms: C_3  and  C_6 
    5  A    between atoms: C_4  and  O_5 
    6  A    between atoms: C_6  and  O_7 
    7  A    between atoms: C_6  and  C_8 
    8  A    between atoms: C_8  and  O_9 
    9  A    between atoms: C_8  and  C_10 
   10  A    between atoms: C_10  and  O_11 

>  <TORSDO>
F 10

$$$$
../results/processed/lowest_conf/7XP6/docked/s5c.pdbqt
 OpenBabel07252415373D

 16 15  0  0  1  0  0  0  0  0999 V2000
  134.4130  130.6220   93.7100 C   0  0  2  0  0  3  0  0  0  0  0  0
  133.8620  129.3100   93.1140 C   0  0  0  0  0  3  0  0  0  0  0  0
  132.3320  129.2420   93.2310 C   0  0  0  0  0  2  0  0  0  0  0  0
  131.9330  128.5380   94.4000 O   0  0  0  0  0  0  0  0  0  0  0  0
  132.7510  128.3550   94.9000 H   0  0  0  0  0  0  0  0  0  0  0  0
  134.4800  128.0780   93.7820 C   0  0  0  0  0  2  0  0  0  0  0  0
  134.7950  128.3630   95.1390 O   0  0  0  0  0  0  0  0  0  0  0  0
  135.6520  128.8240   95.1380 H   0  0  0  0  0  0  0  0  0  0  0  0
  133.6350  130.9710   94.8720 O   0  0  0  0  0  0  0  0  0  0  0  0
  133.7010  131.9500   94.9170 H   0  0  0  0  0  0  0  0  0  0  0  0
  134.4470  131.8490   92.7800 C   0  0  2  0  0  3  0  0  0  0  0  0
  135.3630  132.8020   93.3750 O   0  0  0  0  0  0  0  0  0  0  0  0
  135.0800  133.6620   92.9960 H   0  0  0  0  0  0  0  0  0  0  0  0
  133.1000  132.5610   92.6150 C   0  0  0  0  0  2  0  0  0  0  0  0
  132.9370  133.4650   93.7160 O   0  0  0  0  0  0  0  0  0  0  0  0
  133.4030  134.2840   93.4680 H   0  0  0  0  0  0  0  0  0  0  0  0
  1  2  1  6  0  0  0
  1  9  1  0  0  0  0
  2  3  1  0  0  0  0
  2  6  1  0  0  0  0
  3  4  1  0  0  0  0
  4  5  1  0  0  0  0
  6  7  1  0  0  0  0
  8  7  1  0  0  0  0
  9 10  1  0  0  0  0
 11 14  1  1  0  0  0
 11 12  1  0  0  0  0
 11  1  1  0  0  0  0
 13 12  1  0  0  0  0
 14 15  1  0  0  0  0
 16 15  1  0  0  0  0
M  END
>  <MODEL>
6

>  <REMARK>
 VINA RESULT:      -3.7     17.920     18.707
  10 active torsions:
  status: ('A' for Active; 'I' for Inactive)
    1  A    between atoms: O_1  and  C_2 
    2  A    between atoms: C_2  and  C_3 
    3  A    between atoms: C_3  and  C_4 
    4  A    between atoms: C_3  and  C_6 
    5  A    between atoms: C_4  and  O_5 
    6  A    between atoms: C_6  and  O_7 
    7  A    between atoms: C_6  and  C_8 
    8  A    between atoms: C_8  and  O_9 
    9  A    between atoms: C_8  and  C_10 
   10  A    between atoms: C_10  and  O_11 

>  <TORSDO>
F 10

$$$$
../results/processed/lowest_conf/7XP6/docked/s5c.pdbqt
 OpenBabel07252415373D

 16 15  0  0  1  0  0  0  0  0999 V2000
  142.7630  134.9310   98.6380 C   0  0  2  0  0  3  0  0  0  0  0  0
  143.8630  135.7450   97.9250 C   0  0  0  0  0  3  0  0  0  0  0  0
  144.9630  134.8290   97.3660 C   0  0  0  0  0  2  0  0  0  0  0  0
  145.4860  133.9740   98.3740 O   0  0  0  0  0  0  0  0  0  0  0  0
  144.8200  133.2720   98.5070 H   0  0  0  0  0  0  0  0  0  0  0  0
  144.4920  136.7880   98.8540 C   0  0  0  0  0  2  0  0  0  0  0  0
  145.3930  136.1590   99.7570 O   0  0  0  0  0  0  0  0  0  0  0  0
  144.8930  135.4570  100.2100 H   0  0  0  0  0  0  0  0  0  0  0  0
  143.2910  134.4140   99.8760 O   0  0  0  0  0  0  0  0  0  0  0  0
  142.5410  133.9110  100.2620 H   0  0  0  0  0  0  0  0  0  0  0  0
  142.1530  133.7510   97.8570 C   0  0  2  0  0  3  0  0  0  0  0  0
  140.7230  133.9790   97.8030 O   0  0  0  0  0  0  0  0  0  0  0  0
  140.5210  133.9530   96.8430 H   0  0  0  0  0  0  0  0  0  0  0  0
  142.3680  132.3790   98.5050 C   0  0  0  0  0  2  0  0  0  0  0  0
  141.2710  132.1300   99.3930 O   0  0  0  0  0  0  0  0  0  0  0  0
  141.2200  132.9000   99.9880 H   0  0  0  0  0  0  0  0  0  0  0  0
  1  2  1  6  0  0  0
  1  9  1  0  0  0  0
  2  6  1  0  0  0  0
  3  2  1  0  0  0  0
  3  4  1  0  0  0  0
  4  5  1  0  0  0  0
  6  7  1  0  0  0  0
  7  8  1  0  0  0  0
  9 10  1  0  0  0  0
 11 14  1  1  0  0  0
 11  1  1  0  0  0  0
 12 11  1  0  0  0  0
 13 12  1  0  0  0  0
 14 15  1  0  0  0  0
 15 16  1  0  0  0  0
M  END
>  <MODEL>
7

>  <REMARK>
 VINA RESULT:      -3.7     11.569     12.426
  10 active torsions:
  status: ('A' for Active; 'I' for Inactive)
    1  A    between atoms: O_1  and  C_2 
    2  A    between atoms: C_2  and  C_3 
    3  A    between atoms: C_3  and  C_4 
    4  A    between atoms: C_3  and  C_6 
    5  A    between atoms: C_4  and  O_5 
    6  A    between atoms: C_6  and  O_7 
    7  A    between atoms: C_6  and  C_8 
    8  A    between atoms: C_8  and  O_9 
    9  A    between atoms: C_8  and  C_10 
   10  A    between atoms: C_10  and  O_11 

>  <TORSDO>
F 10

$$$$
../results/processed/lowest_conf/7XP6/docked/s5c.pdbqt
 OpenBabel07252415373D

 16 15  0  0  1  0  0  0  0  0999 V2000
  134.1670  129.1250   93.9860 C   0  0  2  0  0  3  0  0  0  0  0  0
  132.8880  128.4490   93.4500 C   0  0  0  0  0  3  0  0  0  0  0  0
  131.9860  129.4560   92.7210 C   0  0  0  0  0  2  0  0  0  0  0  0
  130.7790  128.8470   92.2790 O   0  0  0  0  0  0  0  0  0  0  0  0
  130.1430  129.5750   92.1420 H   0  0  0  0  0  0  0  0  0  0  0  0
  132.0920  127.7690   94.5680 C   0  0  0  0  0  2  0  0  0  0  0  0
  132.4730  126.4040   94.6810 O   0  0  0  0  0  0  0  0  0  0  0  0
  133.3430  126.3180   94.2500 H   0  0  0  0  0  0  0  0  0  0  0  0
  134.9200  128.1630   94.7510 O   0  0  0  0  0  0  0  0  0  0  0  0
  134.6570  128.3400   95.6810 H   0  0  0  0  0  0  0  0  0  0  0  0
  133.9770  130.3780   94.8620 C   0  0  2  0  0  3  0  0  0  0  0  0
  134.8010  131.4220   94.2860 O   0  0  0  0  0  0  0  0  0  0  0  0
  134.1480  132.0430   93.8970 H   0  0  0  0  0  0  0  0  0  0  0  0
  134.4160  130.2090   96.3210 C   0  0  0  0  0  2  0  0  0  0  0  0
  133.6140  131.0790   97.1300 O   0  0  0  0  0  0  0  0  0  0  0  0
  134.0790  131.1660   97.9820 H   0  0  0  0  0  0  0  0  0  0  0  0
  1  2  1  1  0  0  0
  1  9  1  0  0  0  0
  1 11  1  0  0  0  0
  2  6  1  0  0  0  0
  3  2  1  0  0  0  0
  4  3  1  0  0  0  0
  5  4  1  0  0  0  0
  6  7  1  0  0  0  0
  8  7  1  0  0  0  0
  9 10  1  0  0  0  0
 11 14  1  1  0  0  0
 12 11  1  0  0  0  0
 13 12  1  0  0  0  0
 14 15  1  0  0  0  0
 15 16  1  0  0  0  0
M  END
>  <MODEL>
8

>  <REMARK>
 VINA RESULT:      -3.7     16.988     18.907
  10 active torsions:
  status: ('A' for Active; 'I' for Inactive)
    1  A    between atoms: O_1  and  C_2 
    2  A    between atoms: C_2  and  C_3 
    3  A    between atoms: C_3  and  C_4 
    4  A    between atoms: C_3  and  C_6 
    5  A    between atoms: C_4  and  O_5 
    6  A    between atoms: C_6  and  O_7 
    7  A    between atoms: C_6  and  C_8 
    8  A    between atoms: C_8  and  O_9 
    9  A    between atoms: C_8  and  C_10 
   10  A    between atoms: C_10  and  O_11 

>  <TORSDO>
F 10

$$$$
../results/processed/lowest_conf/7XP6/docked/s5c.pdbqt
 OpenBabel07252415373D

 16 15  0  0  1  0  0  0  0  0999 V2000
  140.8250  143.1230   94.5420 C   0  0  2  0  0  3  0  0  0  0  0  0
  140.0450  141.9210   93.9720 C   0  0  0  0  0  3  0  0  0  0  0  0
  140.9600  140.7030   93.7750 C   0  0  0  0  0  2  0  0  0  0  0  0
  141.5380  140.6930   92.4760 O   0  0  0  0  0  0  0  0  0  0  0  0
  141.1470  139.9290   92.0100 H   0  0  0  0  0  0  0  0  0  0  0  0
  139.3610  142.2630   92.6450 C   0  0  0  0  0  2  0  0  0  0  0  0
  140.0320  143.3470   92.0140 O   0  0  0  0  0  0  0  0  0  0  0  0
  140.8580  142.9890   91.6420 H   0  0  0  0  0  0  0  0  0  0  0  0
  142.1840  143.0690   94.0650 O   0  0  0  0  0  0  0  0  0  0  0  0
  142.1190  143.3580   93.1280 H   0  0  0  0  0  0  0  0  0  0  0  0
  140.8700  143.2600   96.0760 C   0  0  2  0  0  3  0  0  0  0  0  0
  140.7020  144.6680   96.3760 O   0  0  0  0  0  0  0  0  0  0  0  0
  139.8520  144.7000   96.8660 H   0  0  0  0  0  0  0  0  0  0  0  0
  142.1890  142.8160   96.7180 C   0  0  0  0  0  2  0  0  0  0  0  0
  143.0630  143.9510   96.7700 O   0  0  0  0  0  0  0  0  0  0  0  0
  143.5270  143.9780   95.9140 H   0  0  0  0  0  0  0  0  0  0  0  0
  1  2  1  1  0  0  0
  1 11  1  0  0  0  0
  3  2  1  0  0  0  0
  4  3  1  0  0  0  0
  5  4  1  0  0  0  0
  6  2  1  0  0  0  0
  7  6  1  0  0  0  0
  8  7  1  0  0  0  0
  9  1  1  0  0  0  0
 10  9  1  0  0  0  0
 11 12  1  0  0  0  0
 11 14  1  6  0  0  0
 12 13  1  0  0  0  0
 14 15  1  0  0  0  0
 16 15  1  0  0  0  0
M  END
>  <MODEL>
9

>  <REMARK>
 VINA RESULT:      -3.6     14.277     16.216
  10 active torsions:
  status: ('A' for Active; 'I' for Inactive)
    1  A    between atoms: O_1  and  C_2 
    2  A    between atoms: C_2  and  C_3 
    3  A    between atoms: C_3  and  C_4 
    4  A    between atoms: C_3  and  C_6 
    5  A    between atoms: C_4  and  O_5 
    6  A    between atoms: C_6  and  O_7 
    7  A    between atoms: C_6  and  C_8 
    8  A    between atoms: C_8  and  O_9 
    9  A    between atoms: C_8  and  C_10 
   10  A    between atoms: C_10  and  O_11 

>  <TORSDO>
F 10

$$$$
