MODEL 1
REMARK VINA RESULT:      -6.0      0.000      0.000
REMARK  2 active torsions:
REMARK  status: ('A' for Active; 'I' for Inactive)
REMARK    1  A    between atoms: C_6  and  C_7 
REMARK    2  A    between atoms: C_7  and  O_9 
ROOT
ATOM      1  C   UNL d   1     144.184 134.314 103.164  0.00  0.00     0.043 C 
ATOM      2  C   UNL d   1     145.070 133.848 102.044  0.00  0.00    -0.080 C 
ATOM      3  C   UNL d   1     146.378 134.151 102.016  0.00  0.00     0.053 C 
ATOM      4  C   UNL d   1     147.235 133.740 100.877  0.00  0.00     0.164 C 
ATOM      5  O   UNL d   1     148.441 133.979 100.922  0.00  0.00    -0.292 OA
ATOM      6  C   UNL d   1     146.592 133.072  99.683  0.00  0.00     0.161 C 
ATOM      7  C   UNL d   1     145.370 132.232 100.093  0.00  0.00     0.007 C 
ATOM      8  C   UNL d   1     145.806 130.943 100.806  0.00  0.00     0.011 C 
ATOM      9  C   UNL d   1     144.394 133.045 100.962  0.00  0.00     0.039 C 
ENDROOT
BRANCH   6  10
ATOM     10  C   UNL d   1     146.213 134.082  98.634  0.00  0.00     0.151 C 
ATOM     11  O   UNL d   1     145.410 133.944  97.726  0.00  0.00    -0.649 OA
BRANCH  10  12
ATOM     12  O   UNL d   1     146.909 135.233  98.750  0.00  0.00    -0.776 OA
ATOM     13  H   UNL d   1     146.536 135.659  99.551  0.00  0.00     0.167 HD
ENDBRANCH  10  12
ENDBRANCH   6  10
TORSDOF 2
ENDMDL
MODEL 2
REMARK VINA RESULT:      -5.9      1.891      2.749
REMARK  2 active torsions:
REMARK  status: ('A' for Active; 'I' for Inactive)
REMARK    1  A    between atoms: C_6  and  C_7 
REMARK    2  A    between atoms: C_7  and  O_9 
ROOT
ATOM      1  C   UNL d   1     142.343 135.253 100.647  0.00  0.00     0.043 C 
ATOM      2  C   UNL d   1     143.604 134.554 101.069  0.00  0.00    -0.080 C 
ATOM      3  C   UNL d   1     143.942 134.444 102.364  0.00  0.00     0.053 C 
ATOM      4  C   UNL d   1     145.218 133.806 102.772  0.00  0.00     0.164 C 
ATOM      5  O   UNL d   1     145.458 133.665 103.970  0.00  0.00    -0.292 OA
ATOM      6  C   UNL d   1     146.197 133.382 101.700  0.00  0.00     0.161 C 
ATOM      7  C   UNL d   1     145.475 132.949 100.412  0.00  0.00     0.007 C 
ATOM      8  C   UNL d   1     144.804 131.579 100.594  0.00  0.00     0.011 C 
ATOM      9  C   UNL d   1     144.459 134.010  99.953  0.00  0.00     0.039 C 
ENDROOT
BRANCH   6  10
ATOM     10  C   UNL d   1     147.191 134.473 101.409  0.00  0.00     0.151 C 
ATOM     11  O   UNL d   1     147.635 134.803 100.323  0.00  0.00    -0.649 OA
BRANCH  10  12
ATOM     12  O   UNL d   1     147.626 135.087 102.531  0.00  0.00    -0.776 OA
ATOM     13  H   UNL d   1     146.806 135.419 102.955  0.00  0.00     0.167 HD
ENDBRANCH  10  12
ENDBRANCH   6  10
TORSDOF 2
ENDMDL
MODEL 3
REMARK VINA RESULT:      -5.9      2.344      3.954
REMARK  2 active torsions:
REMARK  status: ('A' for Active; 'I' for Inactive)
REMARK    1  A    between atoms: C_6  and  C_7 
REMARK    2  A    between atoms: C_7  and  O_9 
ROOT
ATOM      1  C   UNL d   1     147.396 134.550  98.791  0.00  0.00     0.043 C 
ATOM      2  C   UNL d   1     146.350 134.017  99.729  0.00  0.00    -0.080 C 
ATOM      3  C   UNL d   1     145.064 134.389  99.625  0.00  0.00     0.053 C 
ATOM      4  C   UNL d   1     144.047 133.907 100.592  0.00  0.00     0.164 C 
ATOM      5  O   UNL d   1     142.869 134.217 100.422  0.00  0.00    -0.292 OA
ATOM      6  C   UNL d   1     144.498 133.078 101.774  0.00  0.00     0.161 C 
ATOM      7  C   UNL d   1     145.726 132.218 101.428  0.00  0.00     0.007 C 
ATOM      8  C   UNL d   1     145.334 131.041 100.522  0.00  0.00     0.011 C 
ATOM      9  C   UNL d   1     146.842 133.065 100.789  0.00  0.00     0.039 C 
ENDROOT
BRANCH   6  10
ATOM     10  C   UNL d   1     144.777 133.945 102.971  0.00  0.00     0.151 C 
ATOM     11  O   UNL d   1     145.514 133.699 103.910  0.00  0.00    -0.649 OA
BRANCH  10  12
ATOM     12  O   UNL d   1     144.066 135.093 102.954  0.00  0.00    -0.776 OA
ATOM     13  H   UNL d   1     143.140 134.803 103.103  0.00  0.00     0.167 HD
ENDBRANCH  10  12
ENDBRANCH   6  10
TORSDOF 2
ENDMDL
MODEL 4
REMARK VINA RESULT:      -5.7      2.282      3.654
REMARK  2 active torsions:
REMARK  status: ('A' for Active; 'I' for Inactive)
REMARK    1  A    between atoms: C_6  and  C_7 
REMARK    2  A    between atoms: C_7  and  O_9 
ROOT
ATOM      1  C   UNL d   1     149.102 134.672 101.276  0.00  0.00     0.043 C 
ATOM      2  C   UNL d   1     147.749 134.119 100.930  0.00  0.00    -0.080 C 
ATOM      3  C   UNL d   1     146.641 134.536 101.562  0.00  0.00     0.053 C 
ATOM      4  C   UNL d   1     145.316 133.942 101.259  0.00  0.00     0.164 C 
ATOM      5  O   UNL d   1     144.316 134.398 101.812  0.00  0.00    -0.292 OA
ATOM      6  C   UNL d   1     145.242 132.771 100.304  0.00  0.00     0.161 C 
ATOM      7  C   UNL d   1     146.337 132.849  99.226  0.00  0.00     0.007 C 
ATOM      8  C   UNL d   1     146.015 133.941  98.195  0.00  0.00     0.011 C 
ATOM      9  C   UNL d   1     147.726 133.066  99.852  0.00  0.00     0.039 C 
ENDROOT
BRANCH   6  10
ATOM     10  C   UNL d   1     145.316 131.463 101.042  0.00  0.00     0.151 C 
ATOM     11  O   UNL d   1     145.422 131.293 102.245  0.00  0.00    -0.649 OA
BRANCH  10  12
ATOM     12  O   UNL d   1     145.296 130.399 100.211  0.00  0.00    -0.776 OA
ATOM     13  H   UNL d   1     145.585 130.765  99.347  0.00  0.00     0.167 HD
ENDBRANCH  10  12
ENDBRANCH   6  10
TORSDOF 2
ENDMDL
MODEL 5
REMARK VINA RESULT:      -5.4      2.176      3.731
REMARK  2 active torsions:
REMARK  status: ('A' for Active; 'I' for Inactive)
REMARK    1  A    between atoms: C_6  and  C_7 
REMARK    2  A    between atoms: C_7  and  O_9 
ROOT
ATOM      1  C   UNL d   1     147.529 132.711  97.630  0.00  0.00     0.043 C 
ATOM      2  C   UNL d   1     146.990 133.035  98.994  0.00  0.00    -0.080 C 
ATOM      3  C   UNL d   1     146.540 132.072  99.814  0.00  0.00     0.053 C 
ATOM      4  C   UNL d   1     145.953 132.403 101.135  0.00  0.00     0.164 C 
ATOM      5  O   UNL d   1     145.614 131.488 101.884  0.00  0.00    -0.292 OA
ATOM      6  C   UNL d   1     145.758 133.857 101.504  0.00  0.00     0.161 C 
ATOM      7  C   UNL d   1     146.842 134.751 100.876  0.00  0.00     0.007 C 
ATOM      8  C   UNL d   1     148.189 134.564 101.590  0.00  0.00     0.011 C 
ATOM      9  C   UNL d   1     146.973 134.496  99.364  0.00  0.00     0.039 C 
ENDROOT
BRANCH   6  10
ATOM     10  C   UNL d   1     144.386 134.336 101.118  0.00  0.00     0.151 C 
ATOM     11  O   UNL d   1     143.619 133.828 100.318  0.00  0.00    -0.649 OA
BRANCH  10  12
ATOM     12  O   UNL d   1     144.047 135.486 101.740  0.00  0.00    -0.776 OA
ATOM     13  H   UNL d   1     144.272 135.325 102.681  0.00  0.00     0.167 HD
ENDBRANCH  10  12
ENDBRANCH   6  10
TORSDOF 2
ENDMDL
MODEL 6
REMARK VINA RESULT:      -5.3      2.054      3.709
REMARK  2 active torsions:
REMARK  status: ('A' for Active; 'I' for Inactive)
REMARK    1  A    between atoms: C_6  and  C_7 
REMARK    2  A    between atoms: C_7  and  O_9 
ROOT
ATOM      1  C   UNL d   1     149.020 136.357  99.255  0.00  0.00     0.043 C 
ATOM      2  C   UNL d   1     147.984 135.270  99.224  0.00  0.00    -0.080 C 
ATOM      3  C   UNL d   1     147.185 135.096  98.160  0.00  0.00     0.053 C 
ATOM      4  C   UNL d   1     146.124 134.060  98.159  0.00  0.00     0.164 C 
ATOM      5  O   UNL d   1     145.457 133.889  97.139  0.00  0.00    -0.292 OA
ATOM      6  C   UNL d   1     145.872 133.272  99.425  0.00  0.00     0.161 C 
ATOM      7  C   UNL d   1     147.164 133.076 100.237  0.00  0.00     0.007 C 
ATOM      8  C   UNL d   1     148.084 132.046  99.564  0.00  0.00     0.011 C 
ATOM      9  C   UNL d   1     147.894 134.412 100.461  0.00  0.00     0.039 C 
ENDROOT
BRANCH   6  10
ATOM     10  C   UNL d   1     144.809 133.922 100.268  0.00  0.00     0.151 C 
ATOM     11  O   UNL d   1     144.589 133.744 101.454  0.00  0.00    -0.649 OA
BRANCH  10  12
ATOM     12  O   UNL d   1     144.022 134.755  99.554  0.00  0.00    -0.776 OA
ATOM     13  H   UNL d   1     144.045 135.597 100.058  0.00  0.00     0.167 HD
ENDBRANCH  10  12
ENDBRANCH   6  10
TORSDOF 2
ENDMDL
MODEL 7
REMARK VINA RESULT:      -5.3      1.875      3.026
REMARK  2 active torsions:
REMARK  status: ('A' for Active; 'I' for Inactive)
REMARK    1  A    between atoms: C_6  and  C_7 
REMARK    2  A    between atoms: C_7  and  O_9 
ROOT
ATOM      1  C   UNL d   1     148.291 134.895 101.775  0.00  0.00     0.043 C 
ATOM      2  C   UNL d   1     147.038 134.297 101.202  0.00  0.00    -0.080 C 
ATOM      3  C   UNL d   1     146.820 134.268  99.878  0.00  0.00     0.053 C 
ATOM      4  C   UNL d   1     145.554 133.731  99.321  0.00  0.00     0.164 C 
ATOM      5  O   UNL d   1     145.421 133.661  98.101  0.00  0.00    -0.292 OA
ATOM      6  C   UNL d   1     144.453 133.322 100.274  0.00  0.00     0.161 C 
ATOM      7  C   UNL d   1     145.022 132.785 101.600  0.00  0.00     0.007 C 
ATOM      8  C   UNL d   1     145.625 131.386 101.411  0.00  0.00     0.011 C 
ATOM      9  C   UNL d   1     146.049 133.758 102.205  0.00  0.00     0.039 C 
ENDROOT
BRANCH   6  10
ATOM     10  C   UNL d   1     143.501 134.459 100.527  0.00  0.00     0.151 C 
ATOM     11  O   UNL d   1     142.850 134.672 101.536  0.00  0.00    -0.649 OA
BRANCH  10  12
ATOM     12  O   UNL d   1     143.374 135.273  99.457  0.00  0.00    -0.776 OA
ATOM     13  H   UNL d   1     144.174 135.840  99.491  0.00  0.00     0.167 HD
ENDBRANCH  10  12
ENDBRANCH   6  10
TORSDOF 2
ENDMDL
MODEL 8
REMARK VINA RESULT:      -5.3      2.152      2.980
REMARK  2 active torsions:
REMARK  status: ('A' for Active; 'I' for Inactive)
REMARK    1  A    between atoms: C_6  and  C_7 
REMARK    2  A    between atoms: C_7  and  O_9 
ROOT
ATOM      1  C   UNL d   1     142.044 135.073 100.940  0.00  0.00     0.043 C 
ATOM      2  C   UNL d   1     143.386 134.446 101.191  0.00  0.00    -0.080 C 
ATOM      3  C   UNL d   1     144.484 134.863 100.540  0.00  0.00     0.053 C 
ATOM      4  C   UNL d   1     145.795 134.200 100.746  0.00  0.00     0.164 C 
ATOM      5  O   UNL d   1     146.789 134.654 100.182  0.00  0.00    -0.292 OA
ATOM      6  C   UNL d   1     145.859 132.964 101.617  0.00  0.00     0.161 C 
ATOM      7  C   UNL d   1     144.812 133.010 102.744  0.00  0.00     0.007 C 
ATOM      8  C   UNL d   1     145.220 134.017 103.830  0.00  0.00     0.011 C 
ATOM      9  C   UNL d   1     143.409 133.322 102.195  0.00  0.00     0.039 C 
ENDROOT
BRANCH   6  10
ATOM     10  C   UNL d   1     145.702 131.713 100.798  0.00  0.00     0.151 C 
ATOM     11  O   UNL d   1     145.511 130.579 101.203  0.00  0.00    -0.649 OA
BRANCH  10  12
ATOM     12  O   UNL d   1     145.838 131.942  99.474  0.00  0.00    -0.776 OA
ATOM     13  H   UNL d   1     145.675 131.067  99.061  0.00  0.00     0.167 HD
ENDBRANCH  10  12
ENDBRANCH   6  10
TORSDOF 2
ENDMDL
MODEL 9
REMARK VINA RESULT:      -5.2      3.763      5.579
REMARK  2 active torsions:
REMARK  status: ('A' for Active; 'I' for Inactive)
REMARK    1  A    between atoms: C_6  and  C_7 
REMARK    2  A    between atoms: C_7  and  O_9 
ROOT
ATOM      1  C   UNL d   1     149.363 132.319  95.732  0.00  0.00     0.043 C 
ATOM      2  C   UNL d   1     148.291 133.294  96.128  0.00  0.00    -0.080 C 
ATOM      3  C   UNL d   1     147.398 132.998  97.086  0.00  0.00     0.053 C 
ATOM      4  C   UNL d   1     146.305 133.940  97.431  0.00  0.00     0.164 C 
ATOM      5  O   UNL d   1     145.548 133.661  98.360  0.00  0.00    -0.292 OA
ATOM      6  C   UNL d   1     146.135 135.196  96.606  0.00  0.00     0.161 C 
ATOM      7  C   UNL d   1     147.485 135.714  96.078  0.00  0.00     0.007 C 
ATOM      8  C   UNL d   1     148.307 136.351  97.209  0.00  0.00     0.011 C 
ATOM      9  C   UNL d   1     148.278 134.598  95.374  0.00  0.00     0.039 C 
ENDROOT
BRANCH   6  10
ATOM     10  C   UNL d   1     145.172 134.975  95.472  0.00  0.00     0.151 C 
ATOM     11  O   UNL d   1     144.842 135.774  94.611  0.00  0.00    -0.649 OA
BRANCH  10  12
ATOM     12  O   UNL d   1     144.618 133.744  95.497  0.00  0.00    -0.776 OA
ATOM     13  H   UNL d   1     144.879 133.347  94.638  0.00  0.00     0.167 HD
ENDBRANCH  10  12
ENDBRANCH   6  10
TORSDOF 2
ENDMDL
