../results/processed/lowest_conf/7XP5/docked/b1.pdbqt
 OpenBabel07252416053D

 13 13  0  0  1  0  0  0  0  0999 V2000
  144.1840  134.3140  103.1640 C   0  0  0  0  0  1  0  0  0  0  0  0
  145.0700  133.8480  102.0440 C   0  0  0  0  0  0  0  0  0  0  0  0
  146.3780  134.1510  102.0160 C   0  0  0  0  0  3  0  0  0  0  0  0
  147.2350  133.7400  100.8770 C   0  0  0  0  0  0  0  0  0  0  0  0
  148.4410  133.9790  100.9220 O   0  0  0  0  0  0  0  0  0  0  0  0
  146.5920  133.0720   99.6830 C   0  0  1  0  0  3  0  0  0  0  0  0
  145.3700  132.2320  100.0930 C   0  0  1  0  0  3  0  0  0  0  0  0
  145.8060  130.9430  100.8060 C   0  0  0  0  0  1  0  0  0  0  0  0
  144.3940  133.0450  100.9620 C   0  0  0  0  0  2  0  0  0  0  0  0
  146.2130  134.0820   98.6340 C   0  0  0  0  0  0  0  0  0  0  0  0
  145.4100  133.9440   97.7260 O   0  0  0  0  0  0  0  0  0  0  0  0
  146.9090  135.2330   98.7500 O   0  0  0  0  0  0  0  0  0  0  0  0
  146.5360  135.6590   99.5510 H   0  0  0  0  0  0  0  0  0  0  0  0
  2  1  1  0  0  0  0
  3  2  2  0  0  0  0
  4  5  2  0  0  0  0
  4  3  1  0  0  0  0
  6 10  1  6  0  0  0
  6  7  1  0  0  0  0
  6  4  1  0  0  0  0
  7  8  1  1  0  0  0
  7  9  1  0  0  0  0
  9  2  1  0  0  0  0
 10 12  1  0  0  0  0
 11 10  2  0  0  0  0
 12 13  1  0  0  0  0
M  END
>  <MODEL>
1

>  <REMARK>
 VINA RESULT:      -6.0      0.000      0.000
  2 active torsions:
  status: ('A' for Active; 'I' for Inactive)
    1  A    between atoms: C_6  and  C_7 
    2  A    between atoms: C_7  and  O_9 

>  <TORSDO>
F 2

$$$$
../results/processed/lowest_conf/7XP5/docked/b1.pdbqt
 OpenBabel07252416053D

 13 13  0  0  1  0  0  0  0  0999 V2000
  142.3430  135.2530  100.6470 C   0  0  0  0  0  1  0  0  0  0  0  0
  143.6040  134.5540  101.0690 C   0  0  0  0  0  0  0  0  0  0  0  0
  143.9420  134.4440  102.3640 C   0  0  0  0  0  3  0  0  0  0  0  0
  145.2180  133.8060  102.7720 C   0  0  0  0  0  0  0  0  0  0  0  0
  145.4580  133.6650  103.9700 O   0  0  0  0  0  0  0  0  0  0  0  0
  146.1970  133.3820  101.7000 C   0  0  1  0  0  3  0  0  0  0  0  0
  145.4750  132.9490  100.4120 C   0  0  1  0  0  3  0  0  0  0  0  0
  144.8040  131.5790  100.5940 C   0  0  0  0  0  1  0  0  0  0  0  0
  144.4590  134.0100   99.9530 C   0  0  0  0  0  2  0  0  0  0  0  0
  147.1910  134.4730  101.4090 C   0  0  0  0  0  0  0  0  0  0  0  0
  147.6350  134.8030  100.3230 O   0  0  0  0  0  0  0  0  0  0  0  0
  147.6260  135.0870  102.5310 O   0  0  0  0  0  0  0  0  0  0  0  0
  146.8060  135.4190  102.9550 H   0  0  0  0  0  0  0  0  0  0  0  0
  1  2  1  0  0  0  0
  2  3  2  0  0  0  0
  3  4  1  0  0  0  0
  4  5  2  0  0  0  0
  6 10  1  6  0  0  0
  6  4  1  0  0  0  0
  7  8  1  1  0  0  0
  7  6  1  0  0  0  0
  9  7  1  0  0  0  0
  9  2  1  0  0  0  0
 10 12  1  0  0  0  0
 11 10  2  0  0  0  0
 12 13  1  0  0  0  0
M  END
>  <MODEL>
2

>  <REMARK>
 VINA RESULT:      -5.9      1.891      2.749
  2 active torsions:
  status: ('A' for Active; 'I' for Inactive)
    1  A    between atoms: C_6  and  C_7 
    2  A    between atoms: C_7  and  O_9 

>  <TORSDO>
F 2

$$$$
../results/processed/lowest_conf/7XP5/docked/b1.pdbqt
 OpenBabel07252416053D

 13 13  0  0  1  0  0  0  0  0999 V2000
  147.3960  134.5500   98.7910 C   0  0  0  0  0  1  0  0  0  0  0  0
  146.3500  134.0170   99.7290 C   0  0  0  0  0  0  0  0  0  0  0  0
  145.0640  134.3890   99.6250 C   0  0  0  0  0  3  0  0  0  0  0  0
  144.0470  133.9070  100.5920 C   0  0  0  0  0  0  0  0  0  0  0  0
  142.8690  134.2170  100.4220 O   0  0  0  0  0  0  0  0  0  0  0  0
  144.4980  133.0780  101.7740 C   0  0  1  0  0  3  0  0  0  0  0  0
  145.7260  132.2180  101.4280 C   0  0  1  0  0  3  0  0  0  0  0  0
  145.3340  131.0410  100.5220 C   0  0  0  0  0  1  0  0  0  0  0  0
  146.8420  133.0650  100.7890 C   0  0  0  0  0  2  0  0  0  0  0  0
  144.7770  133.9450  102.9710 C   0  0  0  0  0  0  0  0  0  0  0  0
  145.5140  133.6990  103.9100 O   0  0  0  0  0  0  0  0  0  0  0  0
  144.0660  135.0930  102.9540 O   0  0  0  0  0  0  0  0  0  0  0  0
  143.1400  134.8030  103.1030 H   0  0  0  0  0  0  0  0  0  0  0  0
  1  2  1  0  0  0  0
  2  9  1  0  0  0  0
  3  2  2  0  0  0  0
  3  4  1  0  0  0  0
  4  6  1  0  0  0  0
  5  4  2  0  0  0  0
  6 10  1  1  0  0  0
  7  8  1  6  0  0  0
  7  6  1  0  0  0  0
  9  7  1  0  0  0  0
 10 11  2  0  0  0  0
 12 10  1  0  0  0  0
 12 13  1  0  0  0  0
M  END
>  <MODEL>
3

>  <REMARK>
 VINA RESULT:      -5.9      2.344      3.954
  2 active torsions:
  status: ('A' for Active; 'I' for Inactive)
    1  A    between atoms: C_6  and  C_7 
    2  A    between atoms: C_7  and  O_9 

>  <TORSDO>
F 2

$$$$
../results/processed/lowest_conf/7XP5/docked/b1.pdbqt
 OpenBabel07252416053D

 13 13  0  0  1  0  0  0  0  0999 V2000
  149.1020  134.6720  101.2760 C   0  0  0  0  0  1  0  0  0  0  0  0
  147.7490  134.1190  100.9300 C   0  0  0  0  0  0  0  0  0  0  0  0
  146.6410  134.5360  101.5620 C   0  0  0  0  0  3  0  0  0  0  0  0
  145.3160  133.9420  101.2590 C   0  0  0  0  0  0  0  0  0  0  0  0
  144.3160  134.3980  101.8120 O   0  0  0  0  0  0  0  0  0  0  0  0
  145.2420  132.7710  100.3040 C   0  0  1  0  0  3  0  0  0  0  0  0
  146.3370  132.8490   99.2260 C   0  0  1  0  0  3  0  0  0  0  0  0
  146.0150  133.9410   98.1950 C   0  0  0  0  0  1  0  0  0  0  0  0
  147.7260  133.0660   99.8520 C   0  0  0  0  0  2  0  0  0  0  0  0
  145.3160  131.4630  101.0420 C   0  0  0  0  0  0  0  0  0  0  0  0
  145.4220  131.2930  102.2450 O   0  0  0  0  0  0  0  0  0  0  0  0
  145.2960  130.3990  100.2110 O   0  0  0  0  0  0  0  0  0  0  0  0
  145.5850  130.7650   99.3470 H   0  0  0  0  0  0  0  0  0  0  0  0
  2  1  1  0  0  0  0
  2  3  2  0  0  0  0
  4  3  1  0  0  0  0
  4  5  2  0  0  0  0
  6 10  1  1  0  0  0
  6  4  1  0  0  0  0
  7  8  1  6  0  0  0
  7  9  1  0  0  0  0
  7  6  1  0  0  0  0
  9  2  1  0  0  0  0
 10 11  2  0  0  0  0
 12 10  1  0  0  0  0
 13 12  1  0  0  0  0
M  END
>  <MODEL>
4

>  <REMARK>
 VINA RESULT:      -5.7      2.282      3.654
  2 active torsions:
  status: ('A' for Active; 'I' for Inactive)
    1  A    between atoms: C_6  and  C_7 
    2  A    between atoms: C_7  and  O_9 

>  <TORSDO>
F 2

$$$$
../results/processed/lowest_conf/7XP5/docked/b1.pdbqt
 OpenBabel07252416053D

 13 13  0  0  1  0  0  0  0  0999 V2000
  147.5290  132.7110   97.6300 C   0  0  0  0  0  1  0  0  0  0  0  0
  146.9900  133.0350   98.9940 C   0  0  0  0  0  0  0  0  0  0  0  0
  146.5400  132.0720   99.8140 C   0  0  0  0  0  3  0  0  0  0  0  0
  145.9530  132.4030  101.1350 C   0  0  0  0  0  0  0  0  0  0  0  0
  145.6140  131.4880  101.8840 O   0  0  0  0  0  0  0  0  0  0  0  0
  145.7580  133.8570  101.5040 C   0  0  1  0  0  3  0  0  0  0  0  0
  146.8420  134.7510  100.8760 C   0  0  1  0  0  3  0  0  0  0  0  0
  148.1890  134.5640  101.5900 C   0  0  0  0  0  1  0  0  0  0  0  0
  146.9730  134.4960   99.3640 C   0  0  0  0  0  2  0  0  0  0  0  0
  144.3860  134.3360  101.1180 C   0  0  0  0  0  0  0  0  0  0  0  0
  143.6190  133.8280  100.3180 O   0  0  0  0  0  0  0  0  0  0  0  0
  144.0470  135.4860  101.7400 O   0  0  0  0  0  0  0  0  0  0  0  0
  144.2720  135.3250  102.6810 H   0  0  0  0  0  0  0  0  0  0  0  0
  1  2  1  0  0  0  0
  2  9  1  0  0  0  0
  2  3  2  0  0  0  0
  3  4  1  0  0  0  0
  4  6  1  0  0  0  0
  4  5  2  0  0  0  0
  6 10  1  6  0  0  0
  7  6  1  0  0  0  0
  7  8  1  1  0  0  0
  9  7  1  0  0  0  0
 10 12  1  0  0  0  0
 11 10  2  0  0  0  0
 12 13  1  0  0  0  0
M  END
>  <MODEL>
5

>  <REMARK>
 VINA RESULT:      -5.4      2.176      3.731
  2 active torsions:
  status: ('A' for Active; 'I' for Inactive)
    1  A    between atoms: C_6  and  C_7 
    2  A    between atoms: C_7  and  O_9 

>  <TORSDO>
F 2

$$$$
../results/processed/lowest_conf/7XP5/docked/b1.pdbqt
 OpenBabel07252416053D

 13 13  0  0  1  0  0  0  0  0999 V2000
  149.0200  136.3570   99.2550 C   0  0  0  0  0  1  0  0  0  0  0  0
  147.9840  135.2700   99.2240 C   0  0  0  0  0  0  0  0  0  0  0  0
  147.1850  135.0960   98.1600 C   0  0  0  0  0  3  0  0  0  0  0  0
  146.1240  134.0600   98.1590 C   0  0  0  0  0  0  0  0  0  0  0  0
  145.4570  133.8890   97.1390 O   0  0  0  0  0  0  0  0  0  0  0  0
  145.8720  133.2720   99.4250 C   0  0  1  0  0  3  0  0  0  0  0  0
  147.1640  133.0760  100.2370 C   0  0  1  0  0  3  0  0  0  0  0  0
  148.0840  132.0460   99.5640 C   0  0  0  0  0  1  0  0  0  0  0  0
  147.8940  134.4120  100.4610 C   0  0  0  0  0  2  0  0  0  0  0  0
  144.8090  133.9220  100.2680 C   0  0  0  0  0  0  0  0  0  0  0  0
  144.5890  133.7440  101.4540 O   0  0  0  0  0  0  0  0  0  0  0  0
  144.0220  134.7550   99.5540 O   0  0  0  0  0  0  0  0  0  0  0  0
  144.0450  135.5970  100.0580 H   0  0  0  0  0  0  0  0  0  0  0  0
  2  1  1  0  0  0  0
  2  9  1  0  0  0  0
  3  2  2  0  0  0  0
  4  3  1  0  0  0  0
  4  6  1  0  0  0  0
  5  4  2  0  0  0  0
  6  7  1  0  0  0  0
  6 10  1  1  0  0  0
  7  8  1  6  0  0  0
  7  9  1  0  0  0  0
 10 11  2  0  0  0  0
 12 13  1  0  0  0  0
 12 10  1  0  0  0  0
M  END
>  <MODEL>
6

>  <REMARK>
 VINA RESULT:      -5.3      2.054      3.709
  2 active torsions:
  status: ('A' for Active; 'I' for Inactive)
    1  A    between atoms: C_6  and  C_7 
    2  A    between atoms: C_7  and  O_9 

>  <TORSDO>
F 2

$$$$
../results/processed/lowest_conf/7XP5/docked/b1.pdbqt
 OpenBabel07252416053D

 13 13  0  0  1  0  0  0  0  0999 V2000
  148.2910  134.8950  101.7750 C   0  0  0  0  0  1  0  0  0  0  0  0
  147.0380  134.2970  101.2020 C   0  0  0  0  0  0  0  0  0  0  0  0
  146.8200  134.2680   99.8780 C   0  0  0  0  0  3  0  0  0  0  0  0
  145.5540  133.7310   99.3210 C   0  0  0  0  0  0  0  0  0  0  0  0
  145.4210  133.6610   98.1010 O   0  0  0  0  0  0  0  0  0  0  0  0
  144.4530  133.3220  100.2740 C   0  0  1  0  0  3  0  0  0  0  0  0
  145.0220  132.7850  101.6000 C   0  0  1  0  0  3  0  0  0  0  0  0
  145.6250  131.3860  101.4110 C   0  0  0  0  0  1  0  0  0  0  0  0
  146.0490  133.7580  102.2050 C   0  0  0  0  0  2  0  0  0  0  0  0
  143.5010  134.4590  100.5270 C   0  0  0  0  0  0  0  0  0  0  0  0
  142.8500  134.6720  101.5360 O   0  0  0  0  0  0  0  0  0  0  0  0
  143.3740  135.2730   99.4570 O   0  0  0  0  0  0  0  0  0  0  0  0
  144.1740  135.8400   99.4910 H   0  0  0  0  0  0  0  0  0  0  0  0
  2  1  1  0  0  0  0
  2  9  1  0  0  0  0
  3  2  2  0  0  0  0
  4  3  1  0  0  0  0
  4  6  1  0  0  0  0
  5  4  2  0  0  0  0
  6 10  1  1  0  0  0
  6  7  1  0  0  0  0
  7  8  1  6  0  0  0
  7  9  1  0  0  0  0
 10 11  2  0  0  0  0
 12 13  1  0  0  0  0
 12 10  1  0  0  0  0
M  END
>  <MODEL>
7

>  <REMARK>
 VINA RESULT:      -5.3      1.875      3.026
  2 active torsions:
  status: ('A' for Active; 'I' for Inactive)
    1  A    between atoms: C_6  and  C_7 
    2  A    between atoms: C_7  and  O_9 

>  <TORSDO>
F 2

$$$$
../results/processed/lowest_conf/7XP5/docked/b1.pdbqt
 OpenBabel07252416053D

 13 13  0  0  1  0  0  0  0  0999 V2000
  142.0440  135.0730  100.9400 C   0  0  0  0  0  1  0  0  0  0  0  0
  143.3860  134.4460  101.1910 C   0  0  0  0  0  0  0  0  0  0  0  0
  144.4840  134.8630  100.5400 C   0  0  0  0  0  3  0  0  0  0  0  0
  145.7950  134.2000  100.7460 C   0  0  0  0  0  0  0  0  0  0  0  0
  146.7890  134.6540  100.1820 O   0  0  0  0  0  0  0  0  0  0  0  0
  145.8590  132.9640  101.6170 C   0  0  1  0  0  3  0  0  0  0  0  0
  144.8120  133.0100  102.7440 C   0  0  1  0  0  3  0  0  0  0  0  0
  145.2200  134.0170  103.8300 C   0  0  0  0  0  1  0  0  0  0  0  0
  143.4090  133.3220  102.1950 C   0  0  0  0  0  2  0  0  0  0  0  0
  145.7020  131.7130  100.7980 C   0  0  0  0  0  0  0  0  0  0  0  0
  145.5110  130.5790  101.2030 O   0  0  0  0  0  0  0  0  0  0  0  0
  145.8380  131.9420   99.4740 O   0  0  0  0  0  0  0  0  0  0  0  0
  145.6750  131.0670   99.0610 H   0  0  0  0  0  0  0  0  0  0  0  0
  1  2  1  0  0  0  0
  2  9  1  0  0  0  0
  3  4  1  0  0  0  0
  3  2  2  0  0  0  0
  4  6  1  0  0  0  0
  5  4  2  0  0  0  0
  6 10  1  6  0  0  0
  6  7  1  0  0  0  0
  7  8  1  1  0  0  0
  9  7  1  0  0  0  0
 10 11  2  0  0  0  0
 12 10  1  0  0  0  0
 13 12  1  0  0  0  0
M  END
>  <MODEL>
8

>  <REMARK>
 VINA RESULT:      -5.3      2.152      2.980
  2 active torsions:
  status: ('A' for Active; 'I' for Inactive)
    1  A    between atoms: C_6  and  C_7 
    2  A    between atoms: C_7  and  O_9 

>  <TORSDO>
F 2

$$$$
../results/processed/lowest_conf/7XP5/docked/b1.pdbqt
 OpenBabel07252416053D

 13 13  0  0  1  0  0  0  0  0999 V2000
  149.3630  132.3190   95.7320 C   0  0  0  0  0  1  0  0  0  0  0  0
  148.2910  133.2940   96.1280 C   0  0  0  0  0  0  0  0  0  0  0  0
  147.3980  132.9980   97.0860 C   0  0  0  0  0  3  0  0  0  0  0  0
  146.3050  133.9400   97.4310 C   0  0  0  0  0  0  0  0  0  0  0  0
  145.5480  133.6610   98.3600 O   0  0  0  0  0  0  0  0  0  0  0  0
  146.1350  135.1960   96.6060 C   0  0  1  0  0  3  0  0  0  0  0  0
  147.4850  135.7140   96.0780 C   0  0  1  0  0  3  0  0  0  0  0  0
  148.3070  136.3510   97.2090 C   0  0  0  0  0  1  0  0  0  0  0  0
  148.2780  134.5980   95.3740 C   0  0  0  0  0  2  0  0  0  0  0  0
  145.1720  134.9750   95.4720 C   0  0  0  0  0  0  0  0  0  0  0  0
  144.8420  135.7740   94.6110 O   0  0  0  0  0  0  0  0  0  0  0  0
  144.6180  133.7440   95.4970 O   0  0  0  0  0  0  0  0  0  0  0  0
  144.8790  133.3470   94.6380 H   0  0  0  0  0  0  0  0  0  0  0  0
  1  2  1  0  0  0  0
  2  3  2  0  0  0  0
  3  4  1  0  0  0  0
  4  5  2  0  0  0  0
  6 10  1  6  0  0  0
  6  4  1  0  0  0  0
  7  6  1  0  0  0  0
  7  8  1  1  0  0  0
  9  7  1  0  0  0  0
  9  2  1  0  0  0  0
 10 12  1  0  0  0  0
 11 10  2  0  0  0  0
 13 12  1  0  0  0  0
M  END
>  <MODEL>
9

>  <REMARK>
 VINA RESULT:      -5.2      3.763      5.579
  2 active torsions:
  status: ('A' for Active; 'I' for Inactive)
    1  A    between atoms: C_6  and  C_7 
    2  A    between atoms: C_7  and  O_9 

>  <TORSDO>
F 2

$$$$
