../results/processed/lowest_conf/7XP5/docked/b1c.pdbqt
 OpenBabel07252416063D

 16 16  0  0  1  0  0  0  0  0999 V2000
  145.2110  133.1350  101.9690 C   0  0  0  0  0  0  0  0  0  0  0  0
  146.3120  133.9100  101.5720 C   0  0  0  0  0  3  0  0  0  0  0  0
  147.2500  133.4150  100.6600 C   0  0  0  0  0  3  0  0  0  0  0  0
  147.0990  132.1260  100.1360 C   0  0  0  0  0  0  0  0  0  0  0  0
  145.9940  131.3540  100.5090 C   0  0  0  0  0  3  0  0  0  0  0  0
  145.0590  131.8520  101.4200 C   0  0  0  0  0  3  0  0  0  0  0  0
  144.1810  133.6710  102.9460 C   0  0  2  0  0  3  0  0  0  0  0  0
  142.9310  134.1700  102.2200 C   0  0  0  0  0  1  0  0  0  0  0  0
  144.7450  134.7480  103.7620 N   0  0  0  0  0  0  0  0  0  0  0  0
  144.3110  135.6310  103.5000 H   0  0  0  0  0  0  0  0  0  0  0  0
  144.4930  134.5840  104.7360 H   0  0  0  0  0  0  0  0  0  0  0  0
  148.0720  131.5480   99.1670 C   0  0  0  0  0  0  0  0  0  0  0  0
  148.2520  132.1060   98.0900 O   0  0  0  0  0  0  0  0  0  0  0  0
  148.6790  130.3760   99.5670 N   0  0  0  0  0  0  0  0  0  0  0  0
  149.7310  129.5260   98.4860 Cl  0  0  0  0  0  0  0  0  0  0  0  0
  148.3420  129.8670  100.3700 H   0  0  0  0  0  0  0  0  0  0  0  0
  1  7  1  0  0  0  0
  2  1  1  0  0  0  0
  3  2  2  0  0  0  0
  4  5  2  0  0  0  0
  4  3  1  0  0  0  0
  5  6  1  0  0  0  0
  6  1  2  0  0  0  0
  7  8  1  6  0  0  0
  7  9  1  0  0  0  0
  9 11  1  0  0  0  0
 10  9  1  0  0  0  0
 12 14  1  0  0  0  0
 12  4  1  0  0  0  0
 13 12  2  0  0  0  0
 14 16  1  0  0  0  0
 15 14  1  0  0  0  0
M  END
>  <MODEL>
1

>  <REMARK>
 VINA RESULT:      -6.5      0.000      0.000
  3 active torsions:
  status: ('A' for Active; 'I' for Inactive)
    1  A    between atoms: C_2  and  N_3 
    2  A    between atoms: C_2  and  C_4 
    3  A    between atoms: C_7  and  C_10 
       I    between atoms: C_10  and  N_12 

>  <TORSDO>
F 3

$$$$
../results/processed/lowest_conf/7XP5/docked/b1c.pdbqt
 OpenBabel07252416063D

 16 16  0  0  1  0  0  0  0  0999 V2000
  149.5970  130.6960   97.4900 C   0  0  0  0  0  0  0  0  0  0  0  0
  148.9430  131.7770   96.8770 C   0  0  0  0  0  3  0  0  0  0  0  0
  147.9580  132.5010   97.5550 C   0  0  0  0  0  3  0  0  0  0  0  0
  147.6090  132.1470   98.8640 C   0  0  0  0  0  0  0  0  0  0  0  0
  148.2700  131.0850   99.4910 C   0  0  0  0  0  3  0  0  0  0  0  0
  149.2530  130.3630   98.8090 C   0  0  0  0  0  3  0  0  0  0  0  0
  150.6770  129.9150   96.7640 C   0  0  2  0  0  3  0  0  0  0  0  0
  150.4870  128.4080   96.9390 C   0  0  0  0  0  1  0  0  0  0  0  0
  152.0080  130.3060   97.2300 N   0  0  0  0  0  0  0  0  0  0  0  0
  152.6370  129.5090   97.1540 H   0  0  0  0  0  0  0  0  0  0  0  0
  152.3760  131.0200   96.6030 H   0  0  0  0  0  0  0  0  0  0  0  0
  146.5630  132.8800   99.6300 C   0  0  0  0  0  0  0  0  0  0  0  0
  145.5620  133.2830   99.0480 O   0  0  0  0  0  0  0  0  0  0  0  0
  146.8390  133.0770  100.9670 N   0  0  0  0  0  0  0  0  0  0  0  0
  145.7730  134.0270  101.9470 Cl  0  0  0  0  0  0  0  0  0  0  0  0
  147.7610  132.8980  101.3360 H   0  0  0  0  0  0  0  0  0  0  0  0
  1  6  1  0  0  0  0
  2  1  2  0  0  0  0
  2  3  1  0  0  0  0
  3  4  2  0  0  0  0
  4  5  1  0  0  0  0
  4 12  1  0  0  0  0
  6  5  2  0  0  0  0
  7  8  1  1  0  0  0
  7  9  1  0  0  0  0
  7  1  1  0  0  0  0
 10  9  1  0  0  0  0
 11  9  1  0  0  0  0
 12 14  1  0  0  0  0
 13 12  2  0  0  0  0
 14 16  1  0  0  0  0
 14 15  1  0  0  0  0
M  END
>  <MODEL>
2

>  <REMARK>
 VINA RESULT:      -6.0      3.390      6.365
  3 active torsions:
  status: ('A' for Active; 'I' for Inactive)
    1  A    between atoms: C_2  and  N_3 
    2  A    between atoms: C_2  and  C_4 
    3  A    between atoms: C_7  and  C_10 
       I    between atoms: C_10  and  N_12 

>  <TORSDO>
F 3

$$$$
../results/processed/lowest_conf/7XP5/docked/b1c.pdbqt
 OpenBabel07252416063D

 16 16  0  0  1  0  0  0  0  0999 V2000
  148.9200  131.7480   95.1950 C   0  0  0  0  0  0  0  0  0  0  0  0
  148.7110  132.3090   96.4660 C   0  0  0  0  0  3  0  0  0  0  0  0
  147.5910  133.1060   96.7250 C   0  0  0  0  0  3  0  0  0  0  0  0
  146.6640  133.3590   95.7070 C   0  0  0  0  0  0  0  0  0  0  0  0
  146.8530  132.7870   94.4440 C   0  0  0  0  0  3  0  0  0  0  0  0
  147.9730  131.9920   94.1890 C   0  0  0  0  0  3  0  0  0  0  0  0
  150.1250  130.8710   94.9110 C   0  0  2  0  0  3  0  0  0  0  0  0
  149.8190  129.3980   95.1890 C   0  0  0  0  0  1  0  0  0  0  0  0
  151.2810  131.2950   95.7020 N   0  0  0  0  0  0  0  0  0  0  0  0
  152.0640  130.6730   95.5130 H   0  0  0  0  0  0  0  0  0  0  0  0
  151.5690  132.2210   95.3870 H   0  0  0  0  0  0  0  0  0  0  0  0
  145.4580  134.2050   95.9270 C   0  0  0  0  0  0  0  0  0  0  0  0
  144.9480  134.2470   97.0420 O   0  0  0  0  0  0  0  0  0  0  0  0
  144.9860  134.8630   94.8110 N   0  0  0  0  0  0  0  0  0  0  0  0
  143.5170  135.7760   94.8930 Cl  0  0  0  0  0  0  0  0  0  0  0  0
  145.3280  134.6300   93.8910 H   0  0  0  0  0  0  0  0  0  0  0  0
  1  2  1  0  0  0  0
  2  3  2  0  0  0  0
  4 12  1  0  0  0  0
  4  3  1  0  0  0  0
  5  4  2  0  0  0  0
  6  5  1  0  0  0  0
  6  1  2  0  0  0  0
  7  8  1  1  0  0  0
  7  1  1  0  0  0  0
  7  9  1  0  0  0  0
 10  9  1  0  0  0  0
 11  9  1  0  0  0  0
 12 13  2  0  0  0  0
 14 15  1  0  0  0  0
 14 12  1  0  0  0  0
 16 14  1  0  0  0  0
M  END
>  <MODEL>
3

>  <REMARK>
 VINA RESULT:      -6.0      5.898      7.688
  3 active torsions:
  status: ('A' for Active; 'I' for Inactive)
    1  A    between atoms: C_2  and  N_3 
    2  A    between atoms: C_2  and  C_4 
    3  A    between atoms: C_7  and  C_10 
       I    between atoms: C_10  and  N_12 

>  <TORSDO>
F 3

$$$$
../results/processed/lowest_conf/7XP5/docked/b1c.pdbqt
 OpenBabel07252416063D

 16 16  0  0  1  0  0  0  0  0999 V2000
  138.9450  143.4510  100.0840 C   0  0  0  0  0  0  0  0  0  0  0  0
  138.1200  142.8630  101.0560 C   0  0  0  0  0  3  0  0  0  0  0  0
  136.7530  142.6810  100.8250 C   0  0  0  0  0  3  0  0  0  0  0  0
  136.1900  143.0940   99.6120 C   0  0  0  0  0  0  0  0  0  0  0  0
  137.0080  143.6610   98.6290 C   0  0  0  0  0  3  0  0  0  0  0  0
  138.3730  143.8420   98.8640 C   0  0  0  0  0  3  0  0  0  0  0  0
  140.4320  143.6370  100.3230 C   0  0  2  0  0  3  0  0  0  0  0  0
  140.8820  142.9370  101.6060 C   0  0  0  0  0  1  0  0  0  0  0  0
  140.7790  145.0580  100.3840 N   0  0  0  0  0  0  0  0  0  0  0  0
  140.6350  145.4790   99.4680 H   0  0  0  0  0  0  0  0  0  0  0  0
  140.1310  145.5240  101.0180 H   0  0  0  0  0  0  0  0  0  0  0  0
  134.7390  142.9300   99.3160 C   0  0  0  0  0  0  0  0  0  0  0  0
  134.1320  141.9760   99.7920 O   0  0  0  0  0  0  0  0  0  0  0  0
  134.1950  143.8800   98.4770 N   0  0  0  0  0  0  0  0  0  0  0  0
  132.5540  143.7370   97.9450 Cl  0  0  0  0  0  0  0  0  0  0  0  0
  134.7880  144.5170   97.9650 H   0  0  0  0  0  0  0  0  0  0  0  0
  1  7  1  0  0  0  0
  1  2  1  0  0  0  0
  3  2  2  0  0  0  0
  4  3  1  0  0  0  0
  5  6  1  0  0  0  0
  5  4  2  0  0  0  0
  6  1  2  0  0  0  0
  7  9  1  0  0  0  0
  7  8  1  1  0  0  0
  9 11  1  0  0  0  0
 10  9  1  0  0  0  0
 12  4  1  0  0  0  0
 12 13  2  0  0  0  0
 14 12  1  0  0  0  0
 15 14  1  0  0  0  0
 16 14  1  0  0  0  0
M  END
>  <MODEL>
4

>  <REMARK>
 VINA RESULT:      -5.9     13.570     15.181
  3 active torsions:
  status: ('A' for Active; 'I' for Inactive)
    1  A    between atoms: C_2  and  N_3 
    2  A    between atoms: C_2  and  C_4 
    3  A    between atoms: C_7  and  C_10 
       I    between atoms: C_10  and  N_12 

>  <TORSDO>
F 3

$$$$
../results/processed/lowest_conf/7XP5/docked/b1c.pdbqt
 OpenBabel07252416063D

 16 16  0  0  1  0  0  0  0  0999 V2000
  145.6940  133.9450  101.5510 C   0  0  0  0  0  0  0  0  0  0  0  0
  147.0530  134.2940  101.4900 C   0  0  0  0  0  3  0  0  0  0  0  0
  147.6900  134.4930  100.2610 C   0  0  0  0  0  3  0  0  0  0  0  0
  146.9720  134.3380   99.0700 C   0  0  0  0  0  0  0  0  0  0  0  0
  145.6130  134.0120   99.1210 C   0  0  0  0  0  3  0  0  0  0  0  0
  144.9790  133.8130  100.3500 C   0  0  0  0  0  3  0  0  0  0  0  0
  144.9930  133.7410  102.8810 C   0  0  2  0  0  3  0  0  0  0  0  0
  144.1240  132.4830  102.8660 C   0  0  0  0  0  1  0  0  0  0  0  0
  144.1740  134.9060  103.2250 N   0  0  0  0  0  0  0  0  0  0  0  0
  144.7830  135.6770  103.4910 H   0  0  0  0  0  0  0  0  0  0  0  0
  143.6750  135.2100  102.3910 H   0  0  0  0  0  0  0  0  0  0  0  0
  147.6030  134.5330   97.7340 C   0  0  0  0  0  0  0  0  0  0  0  0
  148.2320  133.6110   97.2260 O   0  0  0  0  0  0  0  0  0  0  0  0
  147.4460  135.7870   97.1830 N   0  0  0  0  0  0  0  0  0  0  0  0
  148.2370  136.1920   95.6970 Cl  0  0  0  0  0  0  0  0  0  0  0  0
  147.0920  136.5540   97.7360 H   0  0  0  0  0  0  0  0  0  0  0  0
  1  7  1  0  0  0  0
  2  1  1  0  0  0  0
  3  2  2  0  0  0  0
  4  5  2  0  0  0  0
  4  3  1  0  0  0  0
  5  6  1  0  0  0  0
  6  1  2  0  0  0  0
  7  8  1  6  0  0  0
  7  9  1  0  0  0  0
  9 10  1  0  0  0  0
 11  9  1  0  0  0  0
 12  4  1  0  0  0  0
 13 12  2  0  0  0  0
 14 12  1  0  0  0  0
 14 16  1  0  0  0  0
 15 14  1  0  0  0  0
M  END
>  <MODEL>
5

>  <REMARK>
 VINA RESULT:      -5.8      3.142      3.217
  3 active torsions:
  status: ('A' for Active; 'I' for Inactive)
    1  A    between atoms: C_2  and  N_3 
    2  A    between atoms: C_2  and  C_4 
    3  A    between atoms: C_7  and  C_10 
       I    between atoms: C_10  and  N_12 

>  <TORSDO>
F 3

$$$$
../results/processed/lowest_conf/7XP5/docked/b1c.pdbqt
 OpenBabel07252416063D

 16 16  0  0  1  0  0  0  0  0999 V2000
  137.1950  143.0750  100.0210 C   0  0  0  0  0  0  0  0  0  0  0  0
  135.8540  142.7180  100.2330 C   0  0  0  0  0  3  0  0  0  0  0  0
  134.8860  142.9380   99.2480 C   0  0  0  0  0  3  0  0  0  0  0  0
  135.2500  143.5290   98.0320 C   0  0  0  0  0  0  0  0  0  0  0  0
  136.5880  143.8680   97.8030 C   0  0  0  0  0  3  0  0  0  0  0  0
  137.5520  143.6470   98.7910 C   0  0  0  0  0  3  0  0  0  0  0  0
  138.2530  142.8250  101.0800 C   0  0  2  0  0  3  0  0  0  0  0  0
  137.6660  142.9260  102.4880 C   0  0  0  0  0  1  0  0  0  0  0  0
  139.3680  143.7630  100.9380 N   0  0  0  0  0  0  0  0  0  0  0  0
  139.2100  144.3520  100.1240 H   0  0  0  0  0  0  0  0  0  0  0  0
  139.3740  144.3850  101.7450 H   0  0  0  0  0  0  0  0  0  0  0  0
  134.2590  143.7920   96.9510 C   0  0  0  0  0  0  0  0  0  0  0  0
  133.3860  142.9620   96.7220 O   0  0  0  0  0  0  0  0  0  0  0  0
  134.4380  144.9700   96.2590 N   0  0  0  0  0  0  0  0  0  0  0  0
  133.4400  145.3400   94.8930 Cl  0  0  0  0  0  0  0  0  0  0  0  0
  135.2870  145.5070   96.3630 H   0  0  0  0  0  0  0  0  0  0  0  0
  1  2  1  0  0  0  0
  1  7  1  0  0  0  0
  3  2  2  0  0  0  0
  4  3  1  0  0  0  0
  5  4  2  0  0  0  0
  5  6  1  0  0  0  0
  6  1  2  0  0  0  0
  7  8  1  1  0  0  0
  9  7  1  0  0  0  0
  9 11  1  0  0  0  0
 10  9  1  0  0  0  0
 12  4  1  0  0  0  0
 13 12  2  0  0  0  0
 14 16  1  0  0  0  0
 14 12  1  0  0  0  0
 15 14  1  0  0  0  0
M  END
>  <MODEL>
6

>  <REMARK>
 VINA RESULT:      -5.5     14.445     15.974
  3 active torsions:
  status: ('A' for Active; 'I' for Inactive)
    1  A    between atoms: C_2  and  N_3 
    2  A    between atoms: C_2  and  C_4 
    3  A    between atoms: C_7  and  C_10 
       I    between atoms: C_10  and  N_12 

>  <TORSDO>
F 3

$$$$
../results/processed/lowest_conf/7XP5/docked/b1c.pdbqt
 OpenBabel07252416063D

 16 16  0  0  1  0  0  0  0  0999 V2000
  149.6920  130.8080   96.2660 C   0  0  0  0  0  0  0  0  0  0  0  0
  149.3420  131.1080   94.9390 C   0  0  0  0  0  3  0  0  0  0  0  0
  148.4340  132.1310   94.6480 C   0  0  0  0  0  3  0  0  0  0  0  0
  147.8560  132.8680   95.6900 C   0  0  0  0  0  0  0  0  0  0  0  0
  148.2150  132.5900   97.0130 C   0  0  0  0  0  3  0  0  0  0  0  0
  149.1220  131.5660   97.2990 C   0  0  0  0  0  3  0  0  0  0  0  0
  150.6880  129.7090   96.5870 C   0  0  2  0  0  3  0  0  0  0  0  0
  150.1610  128.7840   97.6850 C   0  0  0  0  0  1  0  0  0  0  0  0
  151.9780  130.2720   96.9890 N   0  0  0  0  0  0  0  0  0  0  0  0
  151.8210  131.0540   97.6210 H   0  0  0  0  0  0  0  0  0  0  0  0
  152.4870  129.5690   97.5230 H   0  0  0  0  0  0  0  0  0  0  0  0
  146.8790  133.9630   95.4370 C   0  0  0  0  0  0  0  0  0  0  0  0
  147.2910  135.0900   95.1810 O   0  0  0  0  0  0  0  0  0  0  0  0
  145.5510  133.6090   95.5490 N   0  0  0  0  0  0  0  0  0  0  0  0
  144.3130  134.8110   95.4100 Cl  0  0  0  0  0  0  0  0  0  0  0  0
  145.2850  132.7240   95.9550 H   0  0  0  0  0  0  0  0  0  0  0  0
  1  7  1  0  0  0  0
  1  6  1  0  0  0  0
  2  1  2  0  0  0  0
  3  2  1  0  0  0  0
  3  4  2  0  0  0  0
  4  5  1  0  0  0  0
  5  6  2  0  0  0  0
  7  9  1  0  0  0  0
  7  8  1  1  0  0  0
  9 11  1  0  0  0  0
  9 10  1  0  0  0  0
 12 14  1  0  0  0  0
 12  4  1  0  0  0  0
 13 12  2  0  0  0  0
 14 16  1  0  0  0  0
 15 14  1  0  0  0  0
M  END
>  <MODEL>
7

>  <REMARK>
 VINA RESULT:      -5.5      5.694      7.299
  3 active torsions:
  status: ('A' for Active; 'I' for Inactive)
    1  A    between atoms: C_2  and  N_3 
    2  A    between atoms: C_2  and  C_4 
    3  A    between atoms: C_7  and  C_10 
       I    between atoms: C_10  and  N_12 

>  <TORSDO>
F 3

$$$$
../results/processed/lowest_conf/7XP5/docked/b1c.pdbqt
 OpenBabel07252416063D

 16 16  0  0  1  0  0  0  0  0999 V2000
  134.8860  142.9900   99.0370 C   0  0  0  0  0  0  0  0  0  0  0  0
  135.3790  142.5170  100.2630 C   0  0  0  0  0  3  0  0  0  0  0  0
  136.7350  142.6300  100.5860 C   0  0  0  0  0  3  0  0  0  0  0  0
  137.6210  143.2180   99.6750 C   0  0  0  0  0  0  0  0  0  0  0  0
  137.1360  143.7110   98.4600 C   0  0  0  0  0  3  0  0  0  0  0  0
  135.7800  143.5950   98.1410 C   0  0  0  0  0  3  0  0  0  0  0  0
  133.4130  142.8830   98.6870 C   0  0  2  0  0  3  0  0  0  0  0  0
  132.8880  144.1850   98.0820 C   0  0  0  0  0  1  0  0  0  0  0  0
  132.6190  142.5260   99.8640 N   0  0  0  0  0  0  0  0  0  0  0  0
  133.1510  141.8820  100.4450 H   0  0  0  0  0  0  0  0  0  0  0  0
  132.4750  143.3650  100.4250 H   0  0  0  0  0  0  0  0  0  0  0  0
  139.0750  143.3590   99.9650 C   0  0  0  0  0  0  0  0  0  0  0  0
  139.8320  143.7390   99.0780 O   0  0  0  0  0  0  0  0  0  0  0  0
  139.4610  143.0050  101.2410 N   0  0  0  0  0  0  0  0  0  0  0  0
  141.1370  142.9950  101.6750 Cl  0  0  0  0  0  0  0  0  0  0  0  0
  138.8270  142.5150  101.8550 H   0  0  0  0  0  0  0  0  0  0  0  0
  1  2  1  0  0  0  0
  2  3  2  0  0  0  0
  4 12  1  0  0  0  0
  4  3  1  0  0  0  0
  5  4  2  0  0  0  0
  6  5  1  0  0  0  0
  6  1  2  0  0  0  0
  7  8  1  1  0  0  0
  7  1  1  0  0  0  0
  7  9  1  0  0  0  0
  9 11  1  0  0  0  0
  9 10  1  0  0  0  0
 12 14  1  0  0  0  0
 13 12  2  0  0  0  0
 14 15  1  0  0  0  0
 14 16  1  0  0  0  0
M  END
>  <MODEL>
8

>  <REMARK>
 VINA RESULT:      -5.4     13.262     14.903
  3 active torsions:
  status: ('A' for Active; 'I' for Inactive)
    1  A    between atoms: C_2  and  N_3 
    2  A    between atoms: C_2  and  C_4 
    3  A    between atoms: C_7  and  C_10 
       I    between atoms: C_10  and  N_12 

>  <TORSDO>
F 3

$$$$
../results/processed/lowest_conf/7XP5/docked/b1c.pdbqt
 OpenBabel07252416063D

 16 16  0  0  1  0  0  0  0  0999 V2000
  136.3000  143.1690   99.4710 C   0  0  0  0  0  0  0  0  0  0  0  0
  137.3350  143.7340   98.7080 C   0  0  0  0  0  3  0  0  0  0  0  0
  138.6350  143.8240   99.2150 C   0  0  0  0  0  3  0  0  0  0  0  0
  138.9160  143.3530  100.5030 C   0  0  0  0  0  0  0  0  0  0  0  0
  137.8960  142.7690  101.2620 C   0  0  0  0  0  3  0  0  0  0  0  0
  136.5980  142.6810  100.7520 C   0  0  0  0  0  3  0  0  0  0  0  0
  134.8900  143.0540   98.9210 C   0  0  2  0  0  3  0  0  0  0  0  0
  134.6080  141.6440   98.4020 C   0  0  0  0  0  1  0  0  0  0  0  0
  134.6620  144.0310   97.8550 N   0  0  0  0  0  0  0  0  0  0  0  0
  134.1460  143.5880   97.0980 H   0  0  0  0  0  0  0  0  0  0  0  0
  134.0600  144.7710   98.2150 H   0  0  0  0  0  0  0  0  0  0  0  0
  140.2810  143.4300  101.0930 C   0  0  0  0  0  0  0  0  0  0  0  0
  141.0900  144.2310  100.6370 O   0  0  0  0  0  0  0  0  0  0  0  0
  140.5350  142.5390  102.1150 N   0  0  0  0  0  0  0  0  0  0  0  0
  142.1200  142.4300  102.8030 Cl  0  0  0  0  0  0  0  0  0  0  0  0
  139.9000  141.7780  102.3070 H   0  0  0  0  0  0  0  0  0  0  0  0
  1  6  1  0  0  0  0
  2  3  1  0  0  0  0
  2  1  2  0  0  0  0
  3  4  2  0  0  0  0
  4 12  1  0  0  0  0
  4  5  1  0  0  0  0
  6  5  2  0  0  0  0
  7  8  1  6  0  0  0
  7  1  1  0  0  0  0
  9 11  1  0  0  0  0
  9  7  1  0  0  0  0
 10  9  1  0  0  0  0
 12 14  1  0  0  0  0
 13 12  2  0  0  0  0
 14 16  1  0  0  0  0
 14 15  1  0  0  0  0
M  END
>  <MODEL>
9

>  <REMARK>
 VINA RESULT:      -5.4     12.654     14.040
  3 active torsions:
  status: ('A' for Active; 'I' for Inactive)
    1  A    between atoms: C_2  and  N_3 
    2  A    between atoms: C_2  and  C_4 
    3  A    between atoms: C_7  and  C_10 
       I    between atoms: C_10  and  N_12 

>  <TORSDO>
F 3

$$$$
