../results/processed/lowest_conf/7XP5/docked/b2.pdbqt
 OpenBabel07252416053D

 12 12  0  0  0  0  0  0  0  0999 V2000
  145.2540  131.5810  102.1690 C   0  0  0  0  0  3  0  0  0  0  0  0
  145.3350  131.8950  100.8130 C   0  0  0  0  0  3  0  0  0  0  0  0
  144.5890  132.9560  100.2980 C   0  0  0  0  0  3  0  0  0  0  0  0
  143.7650  133.7130  101.1410 C   0  0  0  0  0  0  0  0  0  0  0  0
  143.6750  133.3840  102.5000 C   0  0  0  0  0  3  0  0  0  0  0  0
  144.4240  132.3200  103.0110 C   0  0  0  0  0  3  0  0  0  0  0  0
  142.9900  134.8360  100.5470 C   0  0  0  0  0  0  0  0  0  0  0  0
  142.2310  134.6600   99.5970 O   0  0  0  0  0  0  0  0  0  0  0  0
  143.2090  136.0910  101.0790 N   0  0  0  0  0  0  0  0  0  0  0  0
  144.0770  136.3190  101.5510 H   0  0  0  0  0  0  0  0  0  0  0  0
  142.6200  137.1490  100.3420 O   0  0  0  0  0  0  0  0  0  0  0  0
  142.3110  136.6890   99.5290 H   0  0  0  0  0  0  0  0  0  0  0  0
  1  6  1  0  0  0  0
  2  1  2  0  0  0  0
  3  2  1  0  0  0  0
  3  4  2  0  0  0  0
  4  5  1  0  0  0  0
  5  6  2  0  0  0  0
  7  9  1  0  0  0  0
  7  4  1  0  0  0  0
  8  7  2  0  0  0  0
  9 10  1  0  0  0  0
 11  9  1  0  0  0  0
 12 11  1  0  0  0  0
M  END
>  <MODEL>
1

>  <REMARK>
 VINA RESULT:      -6.2      0.000      0.000
  2 active torsions:
  status: ('A' for Active; 'I' for Inactive)
    1  A    between atoms: C_4  and  C_7 
       I    between atoms: C_7  and  N_9 
    2  A    between atoms: N_9  and  O_10 

>  <TORSDO>
F 2

$$$$
../results/processed/lowest_conf/7XP5/docked/b2.pdbqt
 OpenBabel07252416053D

 12 12  0  0  0  0  0  0  0  0999 V2000
  145.0130  131.7480  102.6070 C   0  0  0  0  0  3  0  0  0  0  0  0
  144.0620  132.6910  102.9900 C   0  0  0  0  0  3  0  0  0  0  0  0
  143.5990  133.6300  102.0660 C   0  0  0  0  0  3  0  0  0  0  0  0
  144.0810  133.6200  100.7510 C   0  0  0  0  0  0  0  0  0  0  0  0
  145.0480  132.6790  100.3740 C   0  0  0  0  0  3  0  0  0  0  0  0
  145.5090  131.7420  101.3030 C   0  0  0  0  0  3  0  0  0  0  0  0
  143.5570  134.6380   99.8000 C   0  0  0  0  0  0  0  0  0  0  0  0
  142.4280  135.1070   99.9210 O   0  0  0  0  0  0  0  0  0  0  0  0
  144.3790  134.9850   98.7470 N   0  0  0  0  0  0  0  0  0  0  0  0
  145.0970  134.3530   98.4080 H   0  0  0  0  0  0  0  0  0  0  0  0
  143.7540  135.7840   97.7560 O   0  0  0  0  0  0  0  0  0  0  0  0
  143.7130  135.1690   96.9890 H   0  0  0  0  0  0  0  0  0  0  0  0
  1  2  1  0  0  0  0
  3  2  2  0  0  0  0
  4  3  1  0  0  0  0
  5  4  2  0  0  0  0
  5  6  1  0  0  0  0
  6  1  2  0  0  0  0
  7  8  2  0  0  0  0
  7  4  1  0  0  0  0
  9  7  1  0  0  0  0
 10  9  1  0  0  0  0
 11  9  1  0  0  0  0
 12 11  1  0  0  0  0
M  END
>  <MODEL>
2

>  <REMARK>
 VINA RESULT:      -5.7      1.338      2.063
  2 active torsions:
  status: ('A' for Active; 'I' for Inactive)
    1  A    between atoms: C_4  and  C_7 
       I    between atoms: C_7  and  N_9 
    2  A    between atoms: N_9  and  O_10 

>  <TORSDO>
F 2

$$$$
../results/processed/lowest_conf/7XP5/docked/b2.pdbqt
 OpenBabel07252416053D

 12 12  0  0  0  0  0  0  0  0999 V2000
  137.8070  142.4680   95.2880 C   0  0  0  0  0  3  0  0  0  0  0  0
  137.0620  143.0500   96.3130 C   0  0  0  0  0  3  0  0  0  0  0  0
  137.6950  143.8400   97.2730 C   0  0  0  0  0  3  0  0  0  0  0  0
  139.0770  144.0600   97.2050 C   0  0  0  0  0  0  0  0  0  0  0  0
  139.8240  143.4620   96.1820 C   0  0  0  0  0  3  0  0  0  0  0  0
  139.1850  142.6700   95.2230 C   0  0  0  0  0  3  0  0  0  0  0  0
  139.7080  144.9120   98.2490 C   0  0  0  0  0  0  0  0  0  0  0  0
  140.0160  146.0800   98.0240 O   0  0  0  0  0  0  0  0  0  0  0  0
  139.9820  144.3080   99.4600 N   0  0  0  0  0  0  0  0  0  0  0  0
  140.1130  143.3050   99.5320 H   0  0  0  0  0  0  0  0  0  0  0  0
  140.7760  145.0900  100.3370 O   0  0  0  0  0  0  0  0  0  0  0  0
  140.1020  145.6570  100.7770 H   0  0  0  0  0  0  0  0  0  0  0  0
  1  2  1  0  0  0  0
  2  3  2  0  0  0  0
  4  3  1  0  0  0  0
  4  7  1  0  0  0  0
  5  4  2  0  0  0  0
  6  1  2  0  0  0  0
  6  5  1  0  0  0  0
  7  9  1  0  0  0  0
  8  7  2  0  0  0  0
  9 10  1  0  0  0  0
  9 11  1  0  0  0  0
 11 12  1  0  0  0  0
M  END
>  <MODEL>
3

>  <REMARK>
 VINA RESULT:      -5.7     11.774     12.280
  2 active torsions:
  status: ('A' for Active; 'I' for Inactive)
    1  A    between atoms: C_4  and  C_7 
       I    between atoms: C_7  and  N_9 
    2  A    between atoms: N_9  and  O_10 

>  <TORSDO>
F 2

$$$$
../results/processed/lowest_conf/7XP5/docked/b2.pdbqt
 OpenBabel07252416053D

 12 12  0  0  0  0  0  0  0  0999 V2000
  137.7670  142.4340   95.3420 C   0  0  0  0  0  3  0  0  0  0  0  0
  139.1280  142.7220   95.2520 C   0  0  0  0  0  3  0  0  0  0  0  0
  139.7340  143.5300   96.2160 C   0  0  0  0  0  3  0  0  0  0  0  0
  138.9820  144.0450   97.2790 C   0  0  0  0  0  0  0  0  0  0  0  0
  137.6110  143.7650   97.3580 C   0  0  0  0  0  3  0  0  0  0  0  0
  137.0080  142.9560   96.3900 C   0  0  0  0  0  3  0  0  0  0  0  0
  139.6720  144.8990   98.2830 C   0  0  0  0  0  0  0  0  0  0  0  0
  140.0010  146.0540   98.0250 O   0  0  0  0  0  0  0  0  0  0  0  0
  139.9740  144.3110   99.4950 N   0  0  0  0  0  0  0  0  0  0  0  0
  140.0810  143.3060   99.5820 H   0  0  0  0  0  0  0  0  0  0  0  0
  140.8180  145.0880  100.3280 O   0  0  0  0  0  0  0  0  0  0  0  0
  141.7150  144.8080  100.0320 H   0  0  0  0  0  0  0  0  0  0  0  0
  1  6  1  0  0  0  0
  2  1  2  0  0  0  0
  2  3  1  0  0  0  0
  3  4  2  0  0  0  0
  4  5  1  0  0  0  0
  4  7  1  0  0  0  0
  6  5  2  0  0  0  0
  7  9  1  0  0  0  0
  8  7  2  0  0  0  0
  9 10  1  0  0  0  0
  9 11  1  0  0  0  0
 12 11  1  0  0  0  0
M  END
>  <MODEL>
4

>  <REMARK>
 VINA RESULT:      -5.6     11.822     12.199
  2 active torsions:
  status: ('A' for Active; 'I' for Inactive)
    1  A    between atoms: C_4  and  C_7 
       I    between atoms: C_7  and  N_9 
    2  A    between atoms: N_9  and  O_10 

>  <TORSDO>
F 2

$$$$
../results/processed/lowest_conf/7XP5/docked/b2.pdbqt
 OpenBabel07252416053D

 12 12  0  0  0  0  0  0  0  0999 V2000
  146.5910  131.6380   99.9280 C   0  0  0  0  0  3  0  0  0  0  0  0
  145.5480  131.2300  100.7570 C   0  0  0  0  0  3  0  0  0  0  0  0
  144.5640  132.1430  101.1410 C   0  0  0  0  0  3  0  0  0  0  0  0
  144.6180  133.4680  100.6890 C   0  0  0  0  0  0  0  0  0  0  0  0
  145.6770  133.8780   99.8680 C   0  0  0  0  0  3  0  0  0  0  0  0
  146.6600  132.9590   99.4860 C   0  0  0  0  0  3  0  0  0  0  0  0
  143.5470  134.4050  101.1220 C   0  0  0  0  0  0  0  0  0  0  0  0
  142.9600  134.2580  102.1920 O   0  0  0  0  0  0  0  0  0  0  0  0
  143.2070  135.4100  100.2400 N   0  0  0  0  0  0  0  0  0  0  0  0
  143.3710  135.3160   99.2440 H   0  0  0  0  0  0  0  0  0  0  0  0
  142.0430  136.1350  100.5990 O   0  0  0  0  0  0  0  0  0  0  0  0
  141.9310  135.8920  101.5460 H   0  0  0  0  0  0  0  0  0  0  0  0
  1  2  1  0  0  0  0
  2  3  2  0  0  0  0
  4  7  1  0  0  0  0
  4  3  1  0  0  0  0
  5  4  2  0  0  0  0
  6  5  1  0  0  0  0
  6  1  2  0  0  0  0
  7  8  2  0  0  0  0
  9 11  1  0  0  0  0
  9  7  1  0  0  0  0
 10  9  1  0  0  0  0
 11 12  1  0  0  0  0
M  END
>  <MODEL>
5

>  <REMARK>
 VINA RESULT:      -5.6      1.467      2.225
  2 active torsions:
  status: ('A' for Active; 'I' for Inactive)
    1  A    between atoms: C_4  and  C_7 
       I    between atoms: C_7  and  N_9 
    2  A    between atoms: N_9  and  O_10 

>  <TORSDO>
F 2

$$$$
../results/processed/lowest_conf/7XP5/docked/b2.pdbqt
 OpenBabel07252416053D

 12 12  0  0  0  0  0  0  0  0999 V2000
  135.5160  143.4970   98.0620 C   0  0  0  0  0  3  0  0  0  0  0  0
  135.2510  142.9380   99.3110 C   0  0  0  0  0  3  0  0  0  0  0  0
  136.2720  142.8330  100.2580 C   0  0  0  0  0  3  0  0  0  0  0  0
  137.5590  143.2980   99.9610 C   0  0  0  0  0  0  0  0  0  0  0  0
  137.8240  143.8470   98.6990 C   0  0  0  0  0  3  0  0  0  0  0  0
  136.7990  143.9480   97.7540 C   0  0  0  0  0  3  0  0  0  0  0  0
  138.6140  143.1690  101.0030 C   0  0  0  0  0  0  0  0  0  0  0  0
  138.3430  143.2170  102.2000 O   0  0  0  0  0  0  0  0  0  0  0  0
  139.9150  143.0500  100.5570 N   0  0  0  0  0  0  0  0  0  0  0  0
  140.1950  143.4010   99.6480 H   0  0  0  0  0  0  0  0  0  0  0  0
  140.8940  143.1510  101.5770 O   0  0  0  0  0  0  0  0  0  0  0  0
  141.4450  142.3510  101.4160 H   0  0  0  0  0  0  0  0  0  0  0  0
  1  2  1  0  0  0  0
  2  3  2  0  0  0  0
  4  3  1  0  0  0  0
  4  7  1  0  0  0  0
  5  4  2  0  0  0  0
  6  1  2  0  0  0  0
  6  5  1  0  0  0  0
  7  8  2  0  0  0  0
  9  7  1  0  0  0  0
  9 11  1  0  0  0  0
 10  9  1  0  0  0  0
 12 11  1  0  0  0  0
M  END
>  <MODEL>
6

>  <REMARK>
 VINA RESULT:      -5.5     10.743     12.005
  2 active torsions:
  status: ('A' for Active; 'I' for Inactive)
    1  A    between atoms: C_4  and  C_7 
       I    between atoms: C_7  and  N_9 
    2  A    between atoms: N_9  and  O_10 

>  <TORSDO>
F 2

$$$$
../results/processed/lowest_conf/7XP5/docked/b2.pdbqt
 OpenBabel07252416053D

 12 12  0  0  0  0  0  0  0  0999 V2000
  147.0390  131.4200   99.8390 C   0  0  0  0  0  3  0  0  0  0  0  0
  145.8630  130.9810  100.4460 C   0  0  0  0  0  3  0  0  0  0  0  0
  145.1200  131.8570  101.2390 C   0  0  0  0  0  3  0  0  0  0  0  0
  145.5460  133.1800  101.4180 C   0  0  0  0  0  0  0  0  0  0  0  0
  146.7350  133.6120  100.8170 C   0  0  0  0  0  3  0  0  0  0  0  0
  147.4770  132.7310  100.0250 C   0  0  0  0  0  3  0  0  0  0  0  0
  144.7190  134.0770  102.2700 C   0  0  0  0  0  0  0  0  0  0  0  0
  143.7370  134.6630  101.8200 O   0  0  0  0  0  0  0  0  0  0  0  0
  145.1430  134.2630  103.5700 N   0  0  0  0  0  0  0  0  0  0  0  0
  146.1140  134.1330  103.8320 H   0  0  0  0  0  0  0  0  0  0  0  0
  144.4570  135.2890  104.2680 O   0  0  0  0  0  0  0  0  0  0  0  0
  145.0310  136.0710  104.1050 H   0  0  0  0  0  0  0  0  0  0  0  0
  1  6  2  0  0  0  0
  1  2  1  0  0  0  0
  2  3  2  0  0  0  0
  3  4  1  0  0  0  0
  4  7  1  0  0  0  0
  5  4  2  0  0  0  0
  6  5  1  0  0  0  0
  7  9  1  0  0  0  0
  8  7  2  0  0  0  0
  9 10  1  0  0  0  0
  9 11  1  0  0  0  0
 12 11  1  0  0  0  0
M  END
>  <MODEL>
7

>  <REMARK>
 VINA RESULT:      -5.4      2.506      3.094
  2 active torsions:
  status: ('A' for Active; 'I' for Inactive)
    1  A    between atoms: C_4  and  C_7 
       I    between atoms: C_7  and  N_9 
    2  A    between atoms: N_9  and  O_10 

>  <TORSDO>
F 2

$$$$
../results/processed/lowest_conf/7XP5/docked/b2.pdbqt
 OpenBabel07252416053D

 12 12  0  0  0  0  0  0  0  0999 V2000
  148.4760  132.8520   94.7470 C   0  0  0  0  0  3  0  0  0  0  0  0
  149.2600  131.9570   94.0210 C   0  0  0  0  0  3  0  0  0  0  0  0
  149.9400  130.9310   94.6810 C   0  0  0  0  0  3  0  0  0  0  0  0
  149.8290  130.7940   96.0710 C   0  0  0  0  0  0  0  0  0  0  0  0
  149.0520  131.7050   96.7980 C   0  0  0  0  0  3  0  0  0  0  0  0
  148.3740  132.7300   96.1320 C   0  0  0  0  0  3  0  0  0  0  0  0
  150.5700  129.6840   96.7310 C   0  0  0  0  0  0  0  0  0  0  0  0
  151.5920  129.8930   97.3800 O   0  0  0  0  0  0  0  0  0  0  0  0
  150.0840  128.4080   96.5300 N   0  0  0  0  0  0  0  0  0  0  0  0
  149.5250  128.1790   95.7150 H   0  0  0  0  0  0  0  0  0  0  0  0
  150.9410  127.3770   96.9910 O   0  0  0  0  0  0  0  0  0  0  0  0
  150.4200  126.9890   97.7290 H   0  0  0  0  0  0  0  0  0  0  0  0
  1  6  1  0  0  0  0
  2  3  1  0  0  0  0
  2  1  2  0  0  0  0
  3  4  2  0  0  0  0
  4  7  1  0  0  0  0
  4  5  1  0  0  0  0
  6  5  2  0  0  0  0
  7  8  2  0  0  0  0
  9  7  1  0  0  0  0
  9 11  1  0  0  0  0
 10  9  1  0  0  0  0
 11 12  1  0  0  0  0
M  END
>  <MODEL>
8

>  <REMARK>
 VINA RESULT:      -5.2      8.443      9.529
  2 active torsions:
  status: ('A' for Active; 'I' for Inactive)
    1  A    between atoms: C_4  and  C_7 
       I    between atoms: C_7  and  N_9 
    2  A    between atoms: N_9  and  O_10 

>  <TORSDO>
F 2

$$$$
../results/processed/lowest_conf/7XP5/docked/b2.pdbqt
 OpenBabel07252416053D

 12 12  0  0  0  0  0  0  0  0999 V2000
  136.3480  142.1770   99.5450 C   0  0  0  0  0  3  0  0  0  0  0  0
  136.6120  142.2600  100.9110 C   0  0  0  0  0  3  0  0  0  0  0  0
  137.8650  142.6870  101.3540 C   0  0  0  0  0  3  0  0  0  0  0  0
  138.8550  143.0440  100.4290 C   0  0  0  0  0  0  0  0  0  0  0  0
  138.5890  142.9460   99.0570 C   0  0  0  0  0  3  0  0  0  0  0  0
  137.3330  142.5160   98.6180 C   0  0  0  0  0  3  0  0  0  0  0  0
  140.1740  143.4970  100.9470 C   0  0  0  0  0  0  0  0  0  0  0  0
  140.6980  144.5350  100.5500 O   0  0  0  0  0  0  0  0  0  0  0  0
  140.8040  142.6650  101.8510 N   0  0  0  0  0  0  0  0  0  0  0  0
  140.6050  141.6710  101.8810 H   0  0  0  0  0  0  0  0  0  0  0  0
  142.1430  143.0280  102.1440 O   0  0  0  0  0  0  0  0  0  0  0  0
  142.4490  142.2690  102.6910 H   0  0  0  0  0  0  0  0  0  0  0  0
  1  2  1  0  0  0  0
  2  3  2  0  0  0  0
  4  7  1  0  0  0  0
  4  3  1  0  0  0  0
  5  4  2  0  0  0  0
  6  5  1  0  0  0  0
  6  1  2  0  0  0  0
  7  9  1  0  0  0  0
  8  7  2  0  0  0  0
  9 10  1  0  0  0  0
  9 11  1  0  0  0  0
 11 12  1  0  0  0  0
M  END
>  <MODEL>
9

>  <REMARK>
 VINA RESULT:      -5.0     10.400     10.995
  2 active torsions:
  status: ('A' for Active; 'I' for Inactive)
    1  A    between atoms: C_4  and  C_7 
       I    between atoms: C_7  and  N_9 
    2  A    between atoms: N_9  and  O_10 

>  <TORSDO>
F 2

$$$$
