../results/processed/lowest_conf/7XP5/docked/b2c.pdbqt
 OpenBabel07252416063D

 14 14  0  0  1  0  0  0  0  0999 V2000
  146.1510  133.2630   99.2900 S   0  0  0  0  0  0  0  0  0  0  0  0
  146.6340  131.8920   99.3080 O   0  0  0  0  0  0  0  0  0  0  0  0
  145.5440  133.8000   98.0850 O   0  0  0  0  0  0  0  0  0  0  0  0
  147.5320  134.3760   99.7700 C   0  0  1  0  0  3  0  0  0  0  0  0
  147.9270  135.2880   98.6120 C   0  0  0  0  0  1  0  0  0  0  0  0
  147.2770  135.2290  100.9690 N   0  0  0  0  0  0  0  0  0  0  0  0
  148.1150  135.7920  101.1350 H   0  0  0  0  0  0  0  0  0  0  0  0
  146.5590  135.9130  100.7090 H   0  0  0  0  0  0  0  0  0  0  0  0
  144.9630  133.4490  100.5970 C   0  0  0  0  0  0  0  0  0  0  0  0
  143.9680  134.4240  100.4800 C   0  0  0  0  0  3  0  0  0  0  0  0
  143.0290  134.5690  101.5000 C   0  0  0  0  0  3  0  0  0  0  0  0
  143.0800  133.7380  102.6200 C   0  0  0  0  0  3  0  0  0  0  0  0
  144.0630  132.7530  102.7220 C   0  0  0  0  0  3  0  0  0  0  0  0
  145.0070  132.6000  101.7060 C   0  0  0  0  0  3  0  0  0  0  0  0
  1  2  2  0  0  0  0
  1  4  1  0  0  0  0
  1  9  1  0  0  0  0
  3  1  2  0  0  0  0
  4  5  1  6  0  0  0
  4  6  1  0  0  0  0
  6  7  1  0  0  0  0
  8  6  1  0  0  0  0
  9 14  1  0  0  0  0
 10  9  2  0  0  0  0
 10 11  1  0  0  0  0
 11 12  2  0  0  0  0
 12 13  1  0  0  0  0
 14 13  2  0  0  0  0
M  END
>  <MODEL>
1

>  <REMARK>
 VINA RESULT:      -5.9      0.000      0.000
  3 active torsions:
  status: ('A' for Active; 'I' for Inactive)
    1  A    between atoms: C_2  and  N_3 
    2  A    between atoms: C_2  and  S_4 
    3  A    between atoms: S_4  and  C_7 

>  <TORSDO>
F 3

$$$$
../results/processed/lowest_conf/7XP5/docked/b2c.pdbqt
 OpenBabel07252416063D

 14 14  0  0  1  0  0  0  0  0999 V2000
  146.4570  133.6310   99.5350 S   0  0  0  0  0  0  0  0  0  0  0  0
  145.6830  133.4560   98.3180 O   0  0  0  0  0  0  0  0  0  0  0  0
  147.4540  134.6850   99.6140 O   0  0  0  0  0  0  0  0  0  0  0  0
  147.2860  132.0400   99.9340 C   0  0  1  0  0  3  0  0  0  0  0  0
  146.2600  130.9370  100.1830 C   0  0  0  0  0  1  0  0  0  0  0  0
  148.2570  131.5510   98.9110 N   0  0  0  0  0  0  0  0  0  0  0  0
  148.7350  132.3670   98.5210 H   0  0  0  0  0  0  0  0  0  0  0  0
  148.9920  131.0400   99.4100 H   0  0  0  0  0  0  0  0  0  0  0  0
  145.3250  133.8860  100.8800 C   0  0  0  0  0  0  0  0  0  0  0  0
  145.8010  133.8190  102.1930 C   0  0  0  0  0  3  0  0  0  0  0  0
  144.9170  134.0250  103.2520 C   0  0  0  0  0  3  0  0  0  0  0  0
  143.5750  134.3050  102.9970 C   0  0  0  0  0  3  0  0  0  0  0  0
  143.1100  134.3910  101.6840 C   0  0  0  0  0  3  0  0  0  0  0  0
  143.9860  134.1870  100.6180 C   0  0  0  0  0  3  0  0  0  0  0  0
  1  3  2  0  0  0  0
  1  4  1  0  0  0  0
  1  9  1  0  0  0  0
  2  1  2  0  0  0  0
  4  5  1  6  0  0  0
  6  8  1  0  0  0  0
  6  4  1  0  0  0  0
  7  6  1  0  0  0  0
  9 10  1  0  0  0  0
 10 11  2  0  0  0  0
 12 11  1  0  0  0  0
 13 12  2  0  0  0  0
 14  9  2  0  0  0  0
 14 13  1  0  0  0  0
M  END
>  <MODEL>
2

>  <REMARK>
 VINA RESULT:      -5.6      2.001      2.645
  3 active torsions:
  status: ('A' for Active; 'I' for Inactive)
    1  A    between atoms: C_2  and  N_3 
    2  A    between atoms: C_2  and  S_4 
    3  A    between atoms: S_4  and  C_7 

>  <TORSDO>
F 3

$$$$
../results/processed/lowest_conf/7XP5/docked/b2c.pdbqt
 OpenBabel07252416063D

 14 14  0  0  1  0  0  0  0  0999 V2000
  150.5230  131.4510   95.2950 S   0  0  0  0  0  0  0  0  0  0  0  0
  150.5970  130.6220   94.1030 O   0  0  0  0  0  0  0  0  0  0  0  0
  151.4400  132.5650   95.4600 O   0  0  0  0  0  0  0  0  0  0  0  0
  150.6810  130.3670   96.7710 C   0  0  1  0  0  3  0  0  0  0  0  0
  150.2330  128.9430   96.4540 C   0  0  0  0  0  1  0  0  0  0  0  0
  152.0450  130.3040   97.3740 N   0  0  0  0  0  0  0  0  0  0  0  0
  152.7180  130.5710   96.6510 H   0  0  0  0  0  0  0  0  0  0  0  0
  152.1060  131.0560   98.0680 H   0  0  0  0  0  0  0  0  0  0  0  0
  148.8780  132.1110   95.4090 C   0  0  0  0  0  0  0  0  0  0  0  0
  148.4660  132.7130   96.6020 C   0  0  0  0  0  3  0  0  0  0  0  0
  147.1780  133.2380   96.6930 C   0  0  0  0  0  3  0  0  0  0  0  0
  146.3160  133.1700   95.5980 C   0  0  0  0  0  3  0  0  0  0  0  0
  146.7400  132.5860   94.4030 C   0  0  0  0  0  3  0  0  0  0  0  0
  148.0270  132.0580   94.3020 C   0  0  0  0  0  3  0  0  0  0  0  0
  1  9  1  0  0  0  0
  1  3  2  0  0  0  0
  1  4  1  0  0  0  0
  2  1  2  0  0  0  0
  4  5  1  6  0  0  0
  4  6  1  0  0  0  0
  6  8  1  0  0  0  0
  7  6  1  0  0  0  0
  9 10  1  0  0  0  0
 10 11  2  0  0  0  0
 12 11  1  0  0  0  0
 13 12  2  0  0  0  0
 14 13  1  0  0  0  0
 14  9  2  0  0  0  0
M  END
>  <MODEL>
3

>  <REMARK>
 VINA RESULT:      -5.4      5.889      7.048
  3 active torsions:
  status: ('A' for Active; 'I' for Inactive)
    1  A    between atoms: C_2  and  N_3 
    2  A    between atoms: C_2  and  S_4 
    3  A    between atoms: S_4  and  C_7 

>  <TORSDO>
F 3

$$$$
../results/processed/lowest_conf/7XP5/docked/b2c.pdbqt
 OpenBabel07252416063D

 14 14  0  0  1  0  0  0  0  0999 V2000
  146.3050  134.2560   97.8170 S   0  0  0  0  0  0  0  0  0  0  0  0
  145.5640  135.3360   97.1880 O   0  0  0  0  0  0  0  0  0  0  0  0
  145.6230  133.3340   98.7080 O   0  0  0  0  0  0  0  0  0  0  0  0
  147.7270  134.9770   98.7310 C   0  0  1  0  0  3  0  0  0  0  0  0
  148.2450  136.2320   98.0340 C   0  0  0  0  0  1  0  0  0  0  0  0
  147.4620  135.3140  100.1620 N   0  0  0  0  0  0  0  0  0  0  0  0
  146.7520  136.0510  100.1810 H   0  0  0  0  0  0  0  0  0  0  0  0
  146.9990  134.5040  100.5840 H   0  0  0  0  0  0  0  0  0  0  0  0
  147.0560  133.2800   96.5360 C   0  0  0  0  0  0  0  0  0  0  0  0
  148.2880  132.6670   96.7810 C   0  0  0  0  0  3  0  0  0  0  0  0
  148.8780  131.8950   95.7810 C   0  0  0  0  0  3  0  0  0  0  0  0
  148.2350  131.7300   94.5540 C   0  0  0  0  0  3  0  0  0  0  0  0
  146.9950  132.3290   94.3230 C   0  0  0  0  0  3  0  0  0  0  0  0
  146.3970  133.1030   95.3180 C   0  0  0  0  0  3  0  0  0  0  0  0
  1  3  2  0  0  0  0
  1  4  1  0  0  0  0
  2  1  2  0  0  0  0
  4  5  1  6  0  0  0
  4  6  1  0  0  0  0
  6  7  1  0  0  0  0
  6  8  1  0  0  0  0
  9 10  1  0  0  0  0
  9  1  1  0  0  0  0
 11 10  2  0  0  0  0
 12 11  1  0  0  0  0
 13 12  2  0  0  0  0
 13 14  1  0  0  0  0
 14  9  2  0  0  0  0
M  END
>  <MODEL>
4

>  <REMARK>
 VINA RESULT:      -5.4      3.707      5.576
  3 active torsions:
  status: ('A' for Active; 'I' for Inactive)
    1  A    between atoms: C_2  and  N_3 
    2  A    between atoms: C_2  and  S_4 
    3  A    between atoms: S_4  and  C_7 

>  <TORSDO>
F 3

$$$$
../results/processed/lowest_conf/7XP5/docked/b2c.pdbqt
 OpenBabel07252416063D

 14 14  0  0  1  0  0  0  0  0999 V2000
  146.5530  133.3680   99.7350 S   0  0  0  0  0  0  0  0  0  0  0  0
  147.7670  133.6850  100.4680 O   0  0  0  0  0  0  0  0  0  0  0  0
  146.3840  132.0500   99.1490 O   0  0  0  0  0  0  0  0  0  0  0  0
  146.3360  134.6110   98.3990 C   0  0  1  0  0  3  0  0  0  0  0  0
  147.6640  135.2760   98.0490 C   0  0  0  0  0  1  0  0  0  0  0  0
  145.7260  134.0930   97.1380 N   0  0  0  0  0  0  0  0  0  0  0  0
  145.0660  133.3540   97.3920 H   0  0  0  0  0  0  0  0  0  0  0  0
  145.1380  134.8400   96.7560 H   0  0  0  0  0  0  0  0  0  0  0  0
  145.1680  133.6380  100.8150 C   0  0  0  0  0  0  0  0  0  0  0  0
  145.2100  133.1300  102.1170 C   0  0  0  0  0  3  0  0  0  0  0  0
  144.1280  133.3450  102.9690 C   0  0  0  0  0  3  0  0  0  0  0  0
  143.0220  134.0700  102.5250 C   0  0  0  0  0  3  0  0  0  0  0  0
  142.9950  134.5920  101.2310 C   0  0  0  0  0  3  0  0  0  0  0  0
  144.0730  134.3820  100.3710 C   0  0  0  0  0  3  0  0  0  0  0  0
  1  2  2  0  0  0  0
  1  9  1  0  0  0  0
  3  1  2  0  0  0  0
  4  5  1  6  0  0  0
  4  1  1  0  0  0  0
  6  7  1  0  0  0  0
  6  4  1  0  0  0  0
  8  6  1  0  0  0  0
  9 10  1  0  0  0  0
 10 11  2  0  0  0  0
 12 11  1  0  0  0  0
 13 12  2  0  0  0  0
 14  9  2  0  0  0  0
 14 13  1  0  0  0  0
M  END
>  <MODEL>
5

>  <REMARK>
 VINA RESULT:      -5.2      1.565      2.176
  3 active torsions:
  status: ('A' for Active; 'I' for Inactive)
    1  A    between atoms: C_2  and  N_3 
    2  A    between atoms: C_2  and  S_4 
    3  A    between atoms: S_4  and  C_7 

>  <TORSDO>
F 3

$$$$
../results/processed/lowest_conf/7XP5/docked/b2c.pdbqt
 OpenBabel07252416063D

 14 14  0  0  1  0  0  0  0  0999 V2000
  146.1950  134.5110   97.5140 S   0  0  0  0  0  0  0  0  0  0  0  0
  147.0660  135.6620   97.6820 O   0  0  0  0  0  0  0  0  0  0  0  0
  144.8380  134.6950   97.0300 O   0  0  0  0  0  0  0  0  0  0  0  0
  146.1070  133.6060   99.1110 C   0  0  1  0  0  3  0  0  0  0  0  0
  147.1670  134.1120  100.0850 C   0  0  0  0  0  1  0  0  0  0  0  0
  144.7820  133.6500   99.7980 N   0  0  0  0  0  0  0  0  0  0  0  0
  144.2850  132.7860   99.5690 H   0  0  0  0  0  0  0  0  0  0  0  0
  144.9600  133.5820  100.8050 H   0  0  0  0  0  0  0  0  0  0  0  0
  146.9900  133.3720   96.4060 C   0  0  0  0  0  0  0  0  0  0  0  0
  146.3920  133.0890   95.1750 C   0  0  0  0  0  3  0  0  0  0  0  0
  147.0160  132.2010   94.3000 C   0  0  0  0  0  3  0  0  0  0  0  0
  148.2310  131.6110   94.6510 C   0  0  0  0  0  3  0  0  0  0  0  0
  148.8330  131.9130   95.8740 C   0  0  0  0  0  3  0  0  0  0  0  0
  148.2170  132.8010   96.7560 C   0  0  0  0  0  3  0  0  0  0  0  0
  1  2  2  0  0  0  0
  1  4  1  0  0  0  0
  3  1  2  0  0  0  0
  4  6  1  0  0  0  0
  4  5  1  1  0  0  0
  6  8  1  0  0  0  0
  7  6  1  0  0  0  0
  9 14  1  0  0  0  0
  9  1  1  0  0  0  0
 10  9  2  0  0  0  0
 11 12  2  0  0  0  0
 11 10  1  0  0  0  0
 12 13  1  0  0  0  0
 13 14  2  0  0  0  0
M  END
>  <MODEL>
6

>  <REMARK>
 VINA RESULT:      -5.2      3.448      5.568
  3 active torsions:
  status: ('A' for Active; 'I' for Inactive)
    1  A    between atoms: C_2  and  N_3 
    2  A    between atoms: C_2  and  S_4 
    3  A    between atoms: S_4  and  C_7 

>  <TORSDO>
F 3

$$$$
../results/processed/lowest_conf/7XP5/docked/b2c.pdbqt
 OpenBabel07252416063D

 14 14  0  0  1  0  0  0  0  0999 V2000
  137.3810  142.6240   99.7590 S   0  0  0  0  0  0  0  0  0  0  0  0
  136.1440  143.3690   99.5930 O   0  0  0  0  0  0  0  0  0  0  0  0
  137.3440  141.1780   99.8920 O   0  0  0  0  0  0  0  0  0  0  0  0
  138.2820  143.3020  101.2100 C   0  0  1  0  0  3  0  0  0  0  0  0
  137.6340  142.8510  102.5160 C   0  0  0  0  0  1  0  0  0  0  0  0
  139.7360  142.9680  101.2720 N   0  0  0  0  0  0  0  0  0  0  0  0
  140.0840  142.9140  100.3110 H   0  0  0  0  0  0  0  0  0  0  0  0
  140.2180  143.7800  101.6700 H   0  0  0  0  0  0  0  0  0  0  0  0
  138.4360  142.9900   98.3770 C   0  0  0  0  0  0  0  0  0  0  0  0
  138.8650  144.3060   98.1770 C   0  0  0  0  0  3  0  0  0  0  0  0
  139.6990  144.5960   97.0980 C   0  0  0  0  0  3  0  0  0  0  0  0
  140.1070  143.5770   96.2360 C   0  0  0  0  0  3  0  0  0  0  0  0
  139.6910  142.2620   96.4530 C   0  0  0  0  0  3  0  0  0  0  0  0
  138.8580  141.9620   97.5300 C   0  0  0  0  0  3  0  0  0  0  0  0
  1  3  2  0  0  0  0
  1  4  1  0  0  0  0
  2  1  2  0  0  0  0
  4  6  1  0  0  0  0
  4  5  1  1  0  0  0
  6  8  1  0  0  0  0
  7  6  1  0  0  0  0
  9  1  1  0  0  0  0
 10  9  1  0  0  0  0
 11 10  2  0  0  0  0
 12 13  2  0  0  0  0
 12 11  1  0  0  0  0
 13 14  1  0  0  0  0
 14  9  2  0  0  0  0
M  END
>  <MODEL>
7

>  <REMARK>
 VINA RESULT:      -5.2     11.281     12.352
  3 active torsions:
  status: ('A' for Active; 'I' for Inactive)
    1  A    between atoms: C_2  and  N_3 
    2  A    between atoms: C_2  and  S_4 
    3  A    between atoms: S_4  and  C_7 

>  <TORSDO>
F 3

$$$$
../results/processed/lowest_conf/7XP5/docked/b2c.pdbqt
 OpenBabel07252416063D

 14 14  0  0  1  0  0  0  0  0999 V2000
  139.6290  143.2990   96.9630 S   0  0  0  0  0  0  0  0  0  0  0  0
  140.0980  142.0060   97.4320 O   0  0  0  0  0  0  0  0  0  0  0  0
  140.4600  144.0900   96.0710 O   0  0  0  0  0  0  0  0  0  0  0  0
  139.2200  144.3380   98.4220 C   0  0  1  0  0  3  0  0  0  0  0  0
  139.2800  143.5200   99.7090 C   0  0  0  0  0  1  0  0  0  0  0  0
  140.0720  145.5520   98.6020 N   0  0  0  0  0  0  0  0  0  0  0  0
  139.7320  146.2680   97.9550 H   0  0  0  0  0  0  0  0  0  0  0  0
  139.8690  145.9310   99.5320 H   0  0  0  0  0  0  0  0  0  0  0  0
  138.0710  143.0600   96.1440 C   0  0  0  0  0  0  0  0  0  0  0  0
  138.0450  142.4260   94.8980 C   0  0  0  0  0  3  0  0  0  0  0  0
  136.8240  142.2310   94.2550 C   0  0  0  0  0  3  0  0  0  0  0  0
  135.6400  142.6560   94.8600 C   0  0  0  0  0  3  0  0  0  0  0  0
  135.6700  143.2700   96.1130 C   0  0  0  0  0  3  0  0  0  0  0  0
  136.8880  143.4700   96.7640 C   0  0  0  0  0  3  0  0  0  0  0  0
  1  2  2  0  0  0  0
  1  4  1  0  0  0  0
  3  1  2  0  0  0  0
  4  6  1  0  0  0  0
  4  5  1  1  0  0  0
  6  8  1  0  0  0  0
  7  6  1  0  0  0  0
  9 14  1  0  0  0  0
  9  1  1  0  0  0  0
 10  9  2  0  0  0  0
 11 12  2  0  0  0  0
 11 10  1  0  0  0  0
 12 13  1  0  0  0  0
 13 14  2  0  0  0  0
M  END
>  <MODEL>
8

>  <REMARK>
 VINA RESULT:      -5.1     11.656     12.842
  3 active torsions:
  status: ('A' for Active; 'I' for Inactive)
    1  A    between atoms: C_2  and  N_3 
    2  A    between atoms: C_2  and  S_4 
    3  A    between atoms: S_4  and  C_7 

>  <TORSDO>
F 3

$$$$
../results/processed/lowest_conf/7XP5/docked/b2c.pdbqt
 OpenBabel07252416063D

 14 14  0  0  1  0  0  0  0  0999 V2000
  146.6040  133.8150   98.2930 S   0  0  0  0  0  0  0  0  0  0  0  0
  145.2660  134.2440   98.6620 O   0  0  0  0  0  0  0  0  0  0  0  0
  146.7810  132.7590   97.3130 O   0  0  0  0  0  0  0  0  0  0  0  0
  147.5030  133.3250   99.8200 C   0  0  1  0  0  3  0  0  0  0  0  0
  146.6790  133.6410  101.0650 C   0  0  0  0  0  1  0  0  0  0  0  0
  147.9150  131.8910   99.8850 N   0  0  0  0  0  0  0  0  0  0  0  0
  148.9000  131.8640  100.1630 H   0  0  0  0  0  0  0  0  0  0  0  0
  147.4170  131.4670  100.6740 H   0  0  0  0  0  0  0  0  0  0  0  0
  147.4950  135.2320   97.6960 C   0  0  0  0  0  0  0  0  0  0  0  0
  148.2140  136.0170   98.6020 C   0  0  0  0  0  3  0  0  0  0  0  0
  148.9200  137.1250   98.1370 C   0  0  0  0  0  3  0  0  0  0  0  0
  148.9130  137.4370   96.7770 C   0  0  0  0  0  3  0  0  0  0  0  0
  148.2100  136.6380   95.8740 C   0  0  0  0  0  3  0  0  0  0  0  0
  147.5010  135.5260   96.3300 C   0  0  0  0  0  3  0  0  0  0  0  0
  1  2  2  0  0  0  0
  1  4  1  0  0  0  0
  3  1  2  0  0  0  0
  4  6  1  0  0  0  0
  4  5  1  1  0  0  0
  6  7  1  0  0  0  0
  6  8  1  0  0  0  0
  9  1  1  0  0  0  0
  9 10  1  0  0  0  0
 11 10  2  0  0  0  0
 12 11  1  0  0  0  0
 13 14  1  0  0  0  0
 13 12  2  0  0  0  0
 14  9  2  0  0  0  0
M  END
>  <MODEL>
9

>  <REMARK>
 VINA RESULT:      -5.0      2.537      5.292
  3 active torsions:
  status: ('A' for Active; 'I' for Inactive)
    1  A    between atoms: C_2  and  N_3 
    2  A    between atoms: C_2  and  S_4 
    3  A    between atoms: S_4  and  C_7 

>  <TORSDO>
F 3

$$$$
