MODEL 1
REMARK VINA RESULT:      -5.7      0.000      0.000
REMARK  3 active torsions:
REMARK  status: ('A' for Active; 'I' for Inactive)
REMARK    1  A    between atoms: C_5  and  C_9 
REMARK    2  A    between atoms: C_6  and  O_8 
REMARK    3  A    between atoms: C_9  and  O_11 
ROOT
ATOM      1  C   UNL d   1     147.401 131.262  99.539  0.00  0.00     0.010 C 
ATOM      2  C   UNL d   1     146.623 132.208 100.451  0.00  0.00    -0.016 C 
ATOM      3  C   UNL d   1     145.631 131.425 101.322  0.00  0.00     0.005 C 
ATOM      4  C   UNL d   1     144.773 132.347 102.189  0.00  0.00     0.018 C 
ATOM      5  C   UNL d   1     144.059 133.398 101.336  0.00  0.00     0.112 C 
ATOM      6  C   UNL d   1     145.057 134.215 100.501  0.00  0.00     0.132 C 
ATOM      7  C   UNL d   1     145.903 133.288  99.623  0.00  0.00     0.037 C 
ENDROOT
BRANCH   5   8
ATOM      8  C   UNL d   1     143.222 134.305 102.202  0.00  0.00     0.146 C 
ATOM      9  O   UNL d   1     142.041 134.577 102.045  0.00  0.00    -0.650 OA
BRANCH   8  10
ATOM     10  O   UNL d   1     143.913 134.823 103.235  0.00  0.00    -0.776 OA
ATOM     11  H   UNL d   1     143.875 135.794 103.095  0.00  0.00     0.167 HD
ENDBRANCH   8  10
ENDBRANCH   5   8
BRANCH   6  12
ATOM     12  O   UNL d   1     145.953 134.956 101.333  0.00  0.00    -0.395 OA
ATOM     13  H   UNL d   1     146.750 135.143 100.796  0.00  0.00     0.210 HD
ENDBRANCH   6  12
TORSDOF 3
ENDMDL
MODEL 2
REMARK VINA RESULT:      -5.6      1.432      1.948
REMARK  3 active torsions:
REMARK  status: ('A' for Active; 'I' for Inactive)
REMARK    1  A    between atoms: C_5  and  C_9 
REMARK    2  A    between atoms: C_6  and  O_8 
REMARK    3  A    between atoms: C_9  and  O_11 
ROOT
ATOM      1  C   UNL d   1     147.991 131.624  99.265  0.00  0.00     0.010 C 
ATOM      2  C   UNL d   1     146.857 132.430  99.897  0.00  0.00    -0.016 C 
ATOM      3  C   UNL d   1     147.419 133.552 100.779  0.00  0.00     0.005 C 
ATOM      4  C   UNL d   1     146.316 134.329 101.497  0.00  0.00     0.018 C 
ATOM      5  C   UNL d   1     145.411 133.388 102.297  0.00  0.00     0.112 C 
ATOM      6  C   UNL d   1     144.808 132.294 101.403  0.00  0.00     0.132 C 
ATOM      7  C   UNL d   1     145.920 131.509 100.699  0.00  0.00     0.037 C 
ENDROOT
BRANCH   5   8
ATOM      8  C   UNL d   1     144.322 134.164 102.995  0.00  0.00     0.146 C 
ATOM      9  O   UNL d   1     143.146 134.224 102.669  0.00  0.00    -0.650 OA
BRANCH   8  10
ATOM     10  O   UNL d   1     144.767 134.825 104.080  0.00  0.00    -0.776 OA
ATOM     11  H   UNL d   1     144.857 134.134 104.771  0.00  0.00     0.167 HD
ENDBRANCH   8  10
ENDBRANCH   5   8
BRANCH   6  12
ATOM     12  O   UNL d   1     143.966 132.850 100.390  0.00  0.00    -0.395 OA
ATOM     13  H   UNL d   1     144.185 133.802 100.329  0.00  0.00     0.210 HD
ENDBRANCH   6  12
TORSDOF 3
ENDMDL
MODEL 3
REMARK VINA RESULT:      -5.6     11.601     12.844
REMARK  3 active torsions:
REMARK  status: ('A' for Active; 'I' for Inactive)
REMARK    1  A    between atoms: C_5  and  C_9 
REMARK    2  A    between atoms: C_6  and  O_8 
REMARK    3  A    between atoms: C_9  and  O_11 
ROOT
ATOM      1  C   UNL d   1     134.518 142.130  99.676  0.00  0.00     0.010 C 
ATOM      2  C   UNL d   1     135.805 142.871 100.037  0.00  0.00    -0.016 C 
ATOM      3  C   UNL d   1     136.457 143.464  98.781  0.00  0.00     0.005 C 
ATOM      4  C   UNL d   1     137.793 144.141  99.090  0.00  0.00     0.018 C 
ATOM      5  C   UNL d   1     138.741 143.182  99.814  0.00  0.00     0.112 C 
ATOM      6  C   UNL d   1     138.106 142.627 101.098  0.00  0.00     0.132 C 
ATOM      7  C   UNL d   1     136.776 141.937 100.780  0.00  0.00     0.037 C 
ENDROOT
BRANCH   5   8
ATOM      8  C   UNL d   1     140.052 143.863 100.120  0.00  0.00     0.146 C 
ATOM      9  O   UNL d   1     140.862 143.534 100.972  0.00  0.00    -0.650 OA
BRANCH   8  10
ATOM     10  O   UNL d   1     140.284 144.927  99.327  0.00  0.00    -0.776 OA
ATOM     11  H   UNL d   1     139.969 144.648  98.441  0.00  0.00     0.167 HD
ENDBRANCH   8  10
ENDBRANCH   5   8
BRANCH   6  12
ATOM     12  O   UNL d   1     137.836 143.668 102.041  0.00  0.00    -0.395 OA
ATOM     13  H   UNL d   1     137.633 144.474 101.524  0.00  0.00     0.210 HD
ENDBRANCH   6  12
TORSDOF 3
ENDMDL
MODEL 4
REMARK VINA RESULT:      -5.5      2.687      3.632
REMARK  3 active torsions:
REMARK  status: ('A' for Active; 'I' for Inactive)
REMARK    1  A    between atoms: C_5  and  C_9 
REMARK    2  A    between atoms: C_6  and  O_8 
REMARK    3  A    between atoms: C_9  and  O_11 
ROOT
ATOM      1  C   UNL d   1     148.645 136.074  99.126  0.00  0.00     0.010 C 
ATOM      2  C   UNL d   1     147.544 135.130  99.606  0.00  0.00    -0.016 C 
ATOM      3  C   UNL d   1     147.764 134.747 101.076  0.00  0.00     0.005 C 
ATOM      4  C   UNL d   1     146.730 133.735 101.570  0.00  0.00     0.018 C 
ATOM      5  C   UNL d   1     146.696 132.499 100.668  0.00  0.00     0.112 C 
ATOM      6  C   UNL d   1     146.426 132.878  99.204  0.00  0.00     0.132 C 
ATOM      7  C   UNL d   1     147.475 133.880  98.711  0.00  0.00     0.037 C 
ENDROOT
BRANCH   5   8
ATOM      8  C   UNL d   1     145.667 131.512 101.160  0.00  0.00     0.146 C 
ATOM      9  O   UNL d   1     145.208 131.440 102.290  0.00  0.00    -0.650 OA
BRANCH   8  10
ATOM     10  O   UNL d   1     145.257 130.663 100.199  0.00  0.00    -0.776 OA
ATOM     11  H   UNL d   1     144.752 131.224  99.572  0.00  0.00     0.167 HD
ENDBRANCH   8  10
ENDBRANCH   5   8
BRANCH   6  12
ATOM     12  O   UNL d   1     145.142 133.487  99.049  0.00  0.00    -0.395 OA
ATOM     13  H   UNL d   1     144.969 133.546  98.087  0.00  0.00     0.210 HD
ENDBRANCH   6  12
TORSDOF 3
ENDMDL
MODEL 5
REMARK VINA RESULT:      -5.5      2.291      4.321
REMARK  3 active torsions:
REMARK  status: ('A' for Active; 'I' for Inactive)
REMARK    1  A    between atoms: C_5  and  C_9 
REMARK    2  A    between atoms: C_6  and  O_8 
REMARK    3  A    between atoms: C_9  and  O_11 
ROOT
ATOM      1  C   UNL d   1     143.213 134.054 102.478  0.00  0.00     0.010 C 
ATOM      2  C   UNL d   1     144.080 133.413 101.395  0.00  0.00    -0.016 C 
ATOM      3  C   UNL d   1     144.621 132.057 101.870  0.00  0.00     0.005 C 
ATOM      4  C   UNL d   1     145.564 131.422 100.847  0.00  0.00     0.018 C 
ATOM      5  C   UNL d   1     146.699 132.380 100.477  0.00  0.00     0.112 C 
ATOM      6  C   UNL d   1     146.157 133.719  99.955  0.00  0.00     0.132 C 
ATOM      7  C   UNL d   1     145.226 134.357 100.990  0.00  0.00     0.037 C 
ENDROOT
BRANCH   5   8
ATOM      8  C   UNL d   1     147.618 131.746  99.462  0.00  0.00     0.146 C 
ATOM      9  O   UNL d   1     148.015 132.250  98.423  0.00  0.00    -0.650 OA
BRANCH   8  10
ATOM     10  O   UNL d   1     148.001 130.503  99.812  0.00  0.00    -0.776 OA
ATOM     11  H   UNL d   1     147.215 130.116 100.251  0.00  0.00     0.167 HD
ENDBRANCH   8  10
ENDBRANCH   5   8
BRANCH   6  12
ATOM     12  O   UNL d   1     145.407 133.547  98.750  0.00  0.00    -0.395 OA
ATOM     13  H   UNL d   1     144.944 134.393  98.580  0.00  0.00     0.210 HD
ENDBRANCH   6  12
TORSDOF 3
ENDMDL
MODEL 6
REMARK VINA RESULT:      -5.5     11.898     12.862
REMARK  3 active torsions:
REMARK  status: ('A' for Active; 'I' for Inactive)
REMARK    1  A    between atoms: C_5  and  C_9 
REMARK    2  A    between atoms: C_6  and  O_8 
REMARK    3  A    between atoms: C_9  and  O_11 
ROOT
ATOM      1  C   UNL d   1     137.076 142.319  95.087  0.00  0.00     0.010 C 
ATOM      2  C   UNL d   1     137.667 143.173  96.208  0.00  0.00    -0.016 C 
ATOM      3  C   UNL d   1     139.189 143.291  96.053  0.00  0.00     0.005 C 
ATOM      4  C   UNL d   1     139.828 144.068  97.204  0.00  0.00     0.018 C 
ATOM      5  C   UNL d   1     139.449 143.458  98.556  0.00  0.00     0.112 C 
ATOM      6  C   UNL d   1     137.924 143.386  98.732  0.00  0.00     0.132 C 
ATOM      7  C   UNL d   1     137.292 142.593  97.584  0.00  0.00     0.037 C 
ENDROOT
BRANCH   5   8
ATOM      8  C   UNL d   1     140.078 144.236  99.684  0.00  0.00     0.146 C 
ATOM      9  O   UNL d   1     140.369 143.809 100.791  0.00  0.00    -0.650 OA
BRANCH   8  10
ATOM     10  O   UNL d   1     140.320 145.521  99.360  0.00  0.00    -0.776 OA
ATOM     11  H   UNL d   1     139.719 146.038  99.937  0.00  0.00     0.167 HD
ENDBRANCH   8  10
ENDBRANCH   5   8
BRANCH   6  12
ATOM     12  O   UNL d   1     137.335 144.688  98.732  0.00  0.00    -0.395 OA
ATOM     13  H   UNL d   1     136.396 144.576  98.986  0.00  0.00     0.210 HD
ENDBRANCH   6  12
TORSDOF 3
ENDMDL
MODEL 7
REMARK VINA RESULT:      -5.2     11.939     13.006
REMARK  3 active torsions:
REMARK  status: ('A' for Active; 'I' for Inactive)
REMARK    1  A    between atoms: C_5  and  C_9 
REMARK    2  A    between atoms: C_6  and  O_8 
REMARK    3  A    between atoms: C_9  and  O_11 
ROOT
ATOM      1  C   UNL d   1     135.337 143.579  96.147  0.00  0.00     0.010 C 
ATOM      2  C   UNL d   1     135.966 142.997  97.413  0.00  0.00    -0.016 C 
ATOM      3  C   UNL d   1     135.119 143.344  98.645  0.00  0.00     0.005 C 
ATOM      4  C   UNL d   1     135.760 142.853  99.943  0.00  0.00     0.018 C 
ATOM      5  C   UNL d   1     137.192 143.376 100.082  0.00  0.00     0.112 C 
ATOM      6  C   UNL d   1     138.053 142.986  98.871  0.00  0.00     0.132 C 
ATOM      7  C   UNL d   1     137.413 143.495  97.575  0.00  0.00     0.037 C 
ENDROOT
BRANCH   5   8
ATOM      8  C   UNL d   1     137.817 142.879 101.361  0.00  0.00     0.146 C 
ATOM      9  O   UNL d   1     138.930 143.154 101.784  0.00  0.00    -0.650 OA
BRANCH   8  10
ATOM     10  O   UNL d   1     137.002 142.061 102.055  0.00  0.00    -0.776 OA
ATOM     11  H   UNL d   1     137.600 141.382 102.435  0.00  0.00     0.167 HD
ENDBRANCH   8  10
ENDBRANCH   5   8
BRANCH   6  12
ATOM     12  O   UNL d   1     138.184 141.567  98.757  0.00  0.00    -0.395 OA
ATOM     13  H   UNL d   1     137.771 141.178  99.556  0.00  0.00     0.210 HD
ENDBRANCH   6  12
TORSDOF 3
ENDMDL
MODEL 8
REMARK VINA RESULT:      -4.9      5.544      6.407
REMARK  3 active torsions:
REMARK  status: ('A' for Active; 'I' for Inactive)
REMARK    1  A    between atoms: C_5  and  C_9 
REMARK    2  A    between atoms: C_6  and  O_8 
REMARK    3  A    between atoms: C_9  and  O_11 
ROOT
ATOM      1  C   UNL d   1     150.203 131.137  95.649  0.00  0.00     0.010 C 
ATOM      2  C   UNL d   1     148.806 131.743  95.780  0.00  0.00    -0.016 C 
ATOM      3  C   UNL d   1     148.118 131.813  94.410  0.00  0.00     0.005 C 
ATOM      4  C   UNL d   1     146.750 132.492  94.486  0.00  0.00     0.018 C 
ATOM      5  C   UNL d   1     146.858 133.877  95.130  0.00  0.00     0.112 C 
ATOM      6  C   UNL d   1     147.502 133.801  96.522  0.00  0.00     0.132 C 
ATOM      7  C   UNL d   1     148.879 133.133  96.437  0.00  0.00     0.037 C 
ENDROOT
BRANCH   5   8
ATOM      8  C   UNL d   1     145.503 134.534  95.206  0.00  0.00     0.146 C 
ATOM      9  O   UNL d   1     145.265 135.728  95.103  0.00  0.00    -0.650 OA
BRANCH   8  10
ATOM     10  O   UNL d   1     144.506 133.650  95.400  0.00  0.00    -0.776 OA
ATOM     11  H   UNL d   1     144.043 133.606  94.536  0.00  0.00     0.167 HD
ENDBRANCH   8  10
ENDBRANCH   5   8
BRANCH   6  12
ATOM     12  O   UNL d   1     146.706 133.030  97.426  0.00  0.00    -0.395 OA
ATOM     13  H   UNL d   1     147.213 132.958  98.261  0.00  0.00     0.210 HD
ENDBRANCH   6  12
TORSDOF 3
ENDMDL
MODEL 9
REMARK VINA RESULT:      -4.6     12.615     13.600
REMARK  3 active torsions:
REMARK  status: ('A' for Active; 'I' for Inactive)
REMARK    1  A    between atoms: C_5  and  C_9 
REMARK    2  A    between atoms: C_6  and  O_8 
REMARK    3  A    between atoms: C_9  and  O_11 
ROOT
ATOM      1  C   UNL d   1     137.773 142.707 102.076  0.00  0.00     0.010 C 
ATOM      2  C   UNL d   1     137.287 143.293 100.751  0.00  0.00    -0.016 C 
ATOM      3  C   UNL d   1     135.970 142.633 100.320  0.00  0.00     0.005 C 
ATOM      4  C   UNL d   1     135.495 143.133  98.955  0.00  0.00     0.018 C 
ATOM      5  C   UNL d   1     136.584 142.955  97.895  0.00  0.00     0.112 C 
ATOM      6  C   UNL d   1     137.887 143.657  98.304  0.00  0.00     0.132 C 
ATOM      7  C   UNL d   1     138.366 143.141  99.664  0.00  0.00     0.037 C 
ENDROOT
BRANCH   5   8
ATOM      8  C   UNL d   1     136.107 143.457  96.555  0.00  0.00     0.146 C 
ATOM      9  O   UNL d   1     136.427 143.025  95.458  0.00  0.00    -0.650 OA
BRANCH   8  10
ATOM     10  O   UNL d   1     135.239 144.481  96.661  0.00  0.00    -0.776 OA
ATOM     11  H   UNL d   1     134.401 144.065  96.956  0.00  0.00     0.167 HD
ENDBRANCH   8  10
ENDBRANCH   5   8
BRANCH   6  12
ATOM     12  O   UNL d   1     137.707 145.071  98.419  0.00  0.00    -0.395 OA
ATOM     13  H   UNL d   1     137.391 145.389  97.548  0.00  0.00     0.210 HD
ENDBRANCH   6  12
TORSDOF 3
ENDMDL
