../results/processed/lowest_conf/7XP5/docked/b3.pdbqt
 OpenBabel07252416053D

 13 13  0  0  1  0  0  0  0  0999 V2000
  147.4010  131.2620   99.5390 C   0  0  0  0  0  1  0  0  0  0  0  0
  146.6230  132.2080  100.4510 C   0  0  2  0  0  3  0  0  0  0  0  0
  145.6310  131.4250  101.3220 C   0  0  0  0  0  2  0  0  0  0  0  0
  144.7730  132.3470  102.1890 C   0  0  0  0  0  2  0  0  0  0  0  0
  144.0590  133.3980  101.3360 C   0  0  2  0  0  3  0  0  0  0  0  0
  145.0570  134.2150  100.5010 C   0  0  2  0  0  3  0  0  0  0  0  0
  145.9030  133.2880   99.6230 C   0  0  0  0  0  2  0  0  0  0  0  0
  143.2220  134.3050  102.2020 C   0  0  0  0  0  0  0  0  0  0  0  0
  142.0410  134.5770  102.0450 O   0  0  0  0  0  0  0  0  0  0  0  0
  143.9130  134.8230  103.2350 O   0  0  0  0  0  0  0  0  0  0  0  0
  143.8750  135.7940  103.0950 H   0  0  0  0  0  0  0  0  0  0  0  0
  145.9530  134.9560  101.3330 O   0  0  0  0  0  0  0  0  0  0  0  0
  146.7500  135.1430  100.7960 H   0  0  0  0  0  0  0  0  0  0  0  0
  2  1  1  6  0  0  0
  2  3  1  0  0  0  0
  3  4  1  0  0  0  0
  5  4  1  0  0  0  0
  5  8  1  1  0  0  0
  6 12  1  1  0  0  0
  6  5  1  0  0  0  0
  7  2  1  0  0  0  0
  7  6  1  0  0  0  0
  8 10  1  0  0  0  0
  9  8  2  0  0  0  0
 11 10  1  0  0  0  0
 13 12  1  0  0  0  0
M  END
>  <MODEL>
1

>  <REMARK>
 VINA RESULT:      -5.7      0.000      0.000
  3 active torsions:
  status: ('A' for Active; 'I' for Inactive)
    1  A    between atoms: C_5  and  C_9 
    2  A    between atoms: C_6  and  O_8 
    3  A    between atoms: C_9  and  O_11 

>  <TORSDO>
F 3

$$$$
../results/processed/lowest_conf/7XP5/docked/b3.pdbqt
 OpenBabel07252416053D

 13 13  0  0  1  0  0  0  0  0999 V2000
  147.9910  131.6240   99.2650 C   0  0  0  0  0  1  0  0  0  0  0  0
  146.8570  132.4300   99.8970 C   0  0  2  0  0  3  0  0  0  0  0  0
  147.4190  133.5520  100.7790 C   0  0  0  0  0  2  0  0  0  0  0  0
  146.3160  134.3290  101.4970 C   0  0  0  0  0  2  0  0  0  0  0  0
  145.4110  133.3880  102.2970 C   0  0  2  0  0  3  0  0  0  0  0  0
  144.8080  132.2940  101.4030 C   0  0  2  0  0  3  0  0  0  0  0  0
  145.9200  131.5090  100.6990 C   0  0  0  0  0  2  0  0  0  0  0  0
  144.3220  134.1640  102.9950 C   0  0  0  0  0  0  0  0  0  0  0  0
  143.1460  134.2240  102.6690 O   0  0  0  0  0  0  0  0  0  0  0  0
  144.7670  134.8250  104.0800 O   0  0  0  0  0  0  0  0  0  0  0  0
  144.8570  134.1340  104.7710 H   0  0  0  0  0  0  0  0  0  0  0  0
  143.9660  132.8500  100.3900 O   0  0  0  0  0  0  0  0  0  0  0  0
  144.1850  133.8020  100.3290 H   0  0  0  0  0  0  0  0  0  0  0  0
  2  1  1  1  0  0  0
  2  7  1  0  0  0  0
  2  3  1  0  0  0  0
  3  4  1  0  0  0  0
  4  5  1  0  0  0  0
  5  8  1  6  0  0  0
  6 12  1  6  0  0  0
  6  5  1  0  0  0  0
  7  6  1  0  0  0  0
  8 10  1  0  0  0  0
  9  8  2  0  0  0  0
 10 11  1  0  0  0  0
 13 12  1  0  0  0  0
M  END
>  <MODEL>
2

>  <REMARK>
 VINA RESULT:      -5.6      1.432      1.948
  3 active torsions:
  status: ('A' for Active; 'I' for Inactive)
    1  A    between atoms: C_5  and  C_9 
    2  A    between atoms: C_6  and  O_8 
    3  A    between atoms: C_9  and  O_11 

>  <TORSDO>
F 3

$$$$
../results/processed/lowest_conf/7XP5/docked/b3.pdbqt
 OpenBabel07252416053D

 13 13  0  0  1  0  0  0  0  0999 V2000
  134.5180  142.1300   99.6760 C   0  0  0  0  0  1  0  0  0  0  0  0
  135.8050  142.8710  100.0370 C   0  0  2  0  0  3  0  0  0  0  0  0
  136.4570  143.4640   98.7810 C   0  0  0  0  0  2  0  0  0  0  0  0
  137.7930  144.1410   99.0900 C   0  0  0  0  0  2  0  0  0  0  0  0
  138.7410  143.1820   99.8140 C   0  0  2  0  0  3  0  0  0  0  0  0
  138.1060  142.6270  101.0980 C   0  0  2  0  0  3  0  0  0  0  0  0
  136.7760  141.9370  100.7800 C   0  0  0  0  0  2  0  0  0  0  0  0
  140.0520  143.8630  100.1200 C   0  0  0  0  0  0  0  0  0  0  0  0
  140.8620  143.5340  100.9720 O   0  0  0  0  0  0  0  0  0  0  0  0
  140.2840  144.9270   99.3270 O   0  0  0  0  0  0  0  0  0  0  0  0
  139.9690  144.6480   98.4410 H   0  0  0  0  0  0  0  0  0  0  0  0
  137.8360  143.6680  102.0410 O   0  0  0  0  0  0  0  0  0  0  0  0
  137.6330  144.4740  101.5240 H   0  0  0  0  0  0  0  0  0  0  0  0
  2  1  1  6  0  0  0
  2  7  1  0  0  0  0
  3  4  1  0  0  0  0
  3  2  1  0  0  0  0
  4  5  1  0  0  0  0
  5  8  1  1  0  0  0
  5  6  1  0  0  0  0
  6 12  1  1  0  0  0
  7  6  1  0  0  0  0
  8  9  2  0  0  0  0
 10  8  1  0  0  0  0
 11 10  1  0  0  0  0
 13 12  1  0  0  0  0
M  END
>  <MODEL>
3

>  <REMARK>
 VINA RESULT:      -5.6     11.601     12.844
  3 active torsions:
  status: ('A' for Active; 'I' for Inactive)
    1  A    between atoms: C_5  and  C_9 
    2  A    between atoms: C_6  and  O_8 
    3  A    between atoms: C_9  and  O_11 

>  <TORSDO>
F 3

$$$$
../results/processed/lowest_conf/7XP5/docked/b3.pdbqt
 OpenBabel07252416053D

 13 13  0  0  1  0  0  0  0  0999 V2000
  148.6450  136.0740   99.1260 C   0  0  0  0  0  1  0  0  0  0  0  0
  147.5440  135.1300   99.6060 C   0  0  2  0  0  3  0  0  0  0  0  0
  147.7640  134.7470  101.0760 C   0  0  0  0  0  2  0  0  0  0  0  0
  146.7300  133.7350  101.5700 C   0  0  0  0  0  2  0  0  0  0  0  0
  146.6960  132.4990  100.6680 C   0  0  2  0  0  3  0  0  0  0  0  0
  146.4260  132.8780   99.2040 C   0  0  2  0  0  3  0  0  0  0  0  0
  147.4750  133.8800   98.7110 C   0  0  0  0  0  2  0  0  0  0  0  0
  145.6670  131.5120  101.1600 C   0  0  0  0  0  0  0  0  0  0  0  0
  145.2080  131.4400  102.2900 O   0  0  0  0  0  0  0  0  0  0  0  0
  145.2570  130.6630  100.1990 O   0  0  0  0  0  0  0  0  0  0  0  0
  144.7520  131.2240   99.5720 H   0  0  0  0  0  0  0  0  0  0  0  0
  145.1420  133.4870   99.0490 O   0  0  0  0  0  0  0  0  0  0  0  0
  144.9690  133.5460   98.0870 H   0  0  0  0  0  0  0  0  0  0  0  0
  2  1  1  6  0  0  0
  2  3  1  0  0  0  0
  3  4  1  0  0  0  0
  5  8  1  1  0  0  0
  5  4  1  0  0  0  0
  6 12  1  1  0  0  0
  6  5  1  0  0  0  0
  7  6  1  0  0  0  0
  7  2  1  0  0  0  0
  8  9  2  0  0  0  0
 10  8  1  0  0  0  0
 11 10  1  0  0  0  0
 13 12  1  0  0  0  0
M  END
>  <MODEL>
4

>  <REMARK>
 VINA RESULT:      -5.5      2.687      3.632
  3 active torsions:
  status: ('A' for Active; 'I' for Inactive)
    1  A    between atoms: C_5  and  C_9 
    2  A    between atoms: C_6  and  O_8 
    3  A    between atoms: C_9  and  O_11 

>  <TORSDO>
F 3

$$$$
../results/processed/lowest_conf/7XP5/docked/b3.pdbqt
 OpenBabel07252416053D

 13 13  0  0  1  0  0  0  0  0999 V2000
  143.2130  134.0540  102.4780 C   0  0  0  0  0  1  0  0  0  0  0  0
  144.0800  133.4130  101.3950 C   0  0  2  0  0  3  0  0  0  0  0  0
  144.6210  132.0570  101.8700 C   0  0  0  0  0  2  0  0  0  0  0  0
  145.5640  131.4220  100.8470 C   0  0  0  0  0  2  0  0  0  0  0  0
  146.6990  132.3800  100.4770 C   0  0  2  0  0  3  0  0  0  0  0  0
  146.1570  133.7190   99.9550 C   0  0  2  0  0  3  0  0  0  0  0  0
  145.2260  134.3570  100.9900 C   0  0  0  0  0  2  0  0  0  0  0  0
  147.6180  131.7460   99.4620 C   0  0  0  0  0  0  0  0  0  0  0  0
  148.0150  132.2500   98.4230 O   0  0  0  0  0  0  0  0  0  0  0  0
  148.0010  130.5030   99.8120 O   0  0  0  0  0  0  0  0  0  0  0  0
  147.2150  130.1160  100.2510 H   0  0  0  0  0  0  0  0  0  0  0  0
  145.4070  133.5470   98.7500 O   0  0  0  0  0  0  0  0  0  0  0  0
  144.9440  134.3930   98.5800 H   0  0  0  0  0  0  0  0  0  0  0  0
  2  3  1  0  0  0  0
  2  1  1  1  0  0  0
  4  3  1  0  0  0  0
  5  8  1  6  0  0  0
  5  4  1  0  0  0  0
  6 12  1  6  0  0  0
  6  5  1  0  0  0  0
  6  7  1  0  0  0  0
  7  2  1  0  0  0  0
  8 10  1  0  0  0  0
  9  8  2  0  0  0  0
 10 11  1  0  0  0  0
 13 12  1  0  0  0  0
M  END
>  <MODEL>
5

>  <REMARK>
 VINA RESULT:      -5.5      2.291      4.321
  3 active torsions:
  status: ('A' for Active; 'I' for Inactive)
    1  A    between atoms: C_5  and  C_9 
    2  A    between atoms: C_6  and  O_8 
    3  A    between atoms: C_9  and  O_11 

>  <TORSDO>
F 3

$$$$
../results/processed/lowest_conf/7XP5/docked/b3.pdbqt
 OpenBabel07252416053D

 13 13  0  0  1  0  0  0  0  0999 V2000
  137.0760  142.3190   95.0870 C   0  0  0  0  0  1  0  0  0  0  0  0
  137.6670  143.1730   96.2080 C   0  0  2  0  0  3  0  0  0  0  0  0
  139.1890  143.2910   96.0530 C   0  0  0  0  0  2  0  0  0  0  0  0
  139.8280  144.0680   97.2040 C   0  0  0  0  0  2  0  0  0  0  0  0
  139.4490  143.4580   98.5560 C   0  0  2  0  0  3  0  0  0  0  0  0
  137.9240  143.3860   98.7320 C   0  0  2  0  0  3  0  0  0  0  0  0
  137.2920  142.5930   97.5840 C   0  0  0  0  0  2  0  0  0  0  0  0
  140.0780  144.2360   99.6840 C   0  0  0  0  0  0  0  0  0  0  0  0
  140.3690  143.8090  100.7910 O   0  0  0  0  0  0  0  0  0  0  0  0
  140.3200  145.5210   99.3600 O   0  0  0  0  0  0  0  0  0  0  0  0
  139.7190  146.0380   99.9370 H   0  0  0  0  0  0  0  0  0  0  0  0
  137.3350  144.6880   98.7320 O   0  0  0  0  0  0  0  0  0  0  0  0
  136.3960  144.5760   98.9860 H   0  0  0  0  0  0  0  0  0  0  0  0
  2  1  1  6  0  0  0
  2  7  1  0  0  0  0
  3  2  1  0  0  0  0
  3  4  1  0  0  0  0
  4  5  1  0  0  0  0
  5  6  1  0  0  0  0
  5  8  1  1  0  0  0
  6 12  1  6  0  0  0
  7  6  1  0  0  0  0
  8  9  2  0  0  0  0
 10  8  1  0  0  0  0
 10 11  1  0  0  0  0
 12 13  1  0  0  0  0
M  END
>  <MODEL>
6

>  <REMARK>
 VINA RESULT:      -5.5     11.898     12.862
  3 active torsions:
  status: ('A' for Active; 'I' for Inactive)
    1  A    between atoms: C_5  and  C_9 
    2  A    between atoms: C_6  and  O_8 
    3  A    between atoms: C_9  and  O_11 

>  <TORSDO>
F 3

$$$$
../results/processed/lowest_conf/7XP5/docked/b3.pdbqt
 OpenBabel07252416053D

 13 13  0  0  1  0  0  0  0  0999 V2000
  135.3370  143.5790   96.1470 C   0  0  0  0  0  1  0  0  0  0  0  0
  135.9660  142.9970   97.4130 C   0  0  2  0  0  3  0  0  0  0  0  0
  135.1190  143.3440   98.6450 C   0  0  0  0  0  2  0  0  0  0  0  0
  135.7600  142.8530   99.9430 C   0  0  0  0  0  2  0  0  0  0  0  0
  137.1920  143.3760  100.0820 C   0  0  2  0  0  3  0  0  0  0  0  0
  138.0530  142.9860   98.8710 C   0  0  2  0  0  3  0  0  0  0  0  0
  137.4130  143.4950   97.5750 C   0  0  0  0  0  2  0  0  0  0  0  0
  137.8170  142.8790  101.3610 C   0  0  0  0  0  0  0  0  0  0  0  0
  138.9300  143.1540  101.7840 O   0  0  0  0  0  0  0  0  0  0  0  0
  137.0020  142.0610  102.0550 O   0  0  0  0  0  0  0  0  0  0  0  0
  137.6000  141.3820  102.4350 H   0  0  0  0  0  0  0  0  0  0  0  0
  138.1840  141.5670   98.7570 O   0  0  0  0  0  0  0  0  0  0  0  0
  137.7710  141.1780   99.5560 H   0  0  0  0  0  0  0  0  0  0  0  0
  2  1  1  6  0  0  0
  2  7  1  0  0  0  0
  2  3  1  0  0  0  0
  3  4  1  0  0  0  0
  4  5  1  0  0  0  0
  5  8  1  1  0  0  0
  6 12  1  6  0  0  0
  6  5  1  0  0  0  0
  7  6  1  0  0  0  0
  8  9  2  0  0  0  0
  8 10  1  0  0  0  0
 10 11  1  0  0  0  0
 12 13  1  0  0  0  0
M  END
>  <MODEL>
7

>  <REMARK>
 VINA RESULT:      -5.2     11.939     13.006
  3 active torsions:
  status: ('A' for Active; 'I' for Inactive)
    1  A    between atoms: C_5  and  C_9 
    2  A    between atoms: C_6  and  O_8 
    3  A    between atoms: C_9  and  O_11 

>  <TORSDO>
F 3

$$$$
../results/processed/lowest_conf/7XP5/docked/b3.pdbqt
 OpenBabel07252416053D

 13 13  0  0  1  0  0  0  0  0999 V2000
  150.2030  131.1370   95.6490 C   0  0  0  0  0  1  0  0  0  0  0  0
  148.8060  131.7430   95.7800 C   0  0  2  0  0  3  0  0  0  0  0  0
  148.1180  131.8130   94.4100 C   0  0  0  0  0  2  0  0  0  0  0  0
  146.7500  132.4920   94.4860 C   0  0  0  0  0  2  0  0  0  0  0  0
  146.8580  133.8770   95.1300 C   0  0  2  0  0  3  0  0  0  0  0  0
  147.5020  133.8010   96.5220 C   0  0  2  0  0  3  0  0  0  0  0  0
  148.8790  133.1330   96.4370 C   0  0  0  0  0  2  0  0  0  0  0  0
  145.5030  134.5340   95.2060 C   0  0  0  0  0  0  0  0  0  0  0  0
  145.2650  135.7280   95.1030 O   0  0  0  0  0  0  0  0  0  0  0  0
  144.5060  133.6500   95.4000 O   0  0  0  0  0  0  0  0  0  0  0  0
  144.0430  133.6060   94.5360 H   0  0  0  0  0  0  0  0  0  0  0  0
  146.7060  133.0300   97.4260 O   0  0  0  0  0  0  0  0  0  0  0  0
  147.2130  132.9580   98.2610 H   0  0  0  0  0  0  0  0  0  0  0  0
  2  1  1  6  0  0  0
  2  7  1  0  0  0  0
  3  4  1  0  0  0  0
  3  2  1  0  0  0  0
  4  5  1  0  0  0  0
  5  8  1  1  0  0  0
  5  6  1  0  0  0  0
  6 12  1  1  0  0  0
  7  6  1  0  0  0  0
  8 10  1  0  0  0  0
  9  8  2  0  0  0  0
 11 10  1  0  0  0  0
 12 13  1  0  0  0  0
M  END
>  <MODEL>
8

>  <REMARK>
 VINA RESULT:      -4.9      5.544      6.407
  3 active torsions:
  status: ('A' for Active; 'I' for Inactive)
    1  A    between atoms: C_5  and  C_9 
    2  A    between atoms: C_6  and  O_8 
    3  A    between atoms: C_9  and  O_11 

>  <TORSDO>
F 3

$$$$
../results/processed/lowest_conf/7XP5/docked/b3.pdbqt
 OpenBabel07252416053D

 13 13  0  0  1  0  0  0  0  0999 V2000
  137.7730  142.7070  102.0760 C   0  0  0  0  0  1  0  0  0  0  0  0
  137.2870  143.2930  100.7510 C   0  0  2  0  0  3  0  0  0  0  0  0
  135.9700  142.6330  100.3200 C   0  0  0  0  0  2  0  0  0  0  0  0
  135.4950  143.1330   98.9550 C   0  0  0  0  0  2  0  0  0  0  0  0
  136.5840  142.9550   97.8950 C   0  0  2  0  0  3  0  0  0  0  0  0
  137.8870  143.6570   98.3040 C   0  0  2  0  0  3  0  0  0  0  0  0
  138.3660  143.1410   99.6640 C   0  0  0  0  0  2  0  0  0  0  0  0
  136.1070  143.4570   96.5550 C   0  0  0  0  0  0  0  0  0  0  0  0
  136.4270  143.0250   95.4580 O   0  0  0  0  0  0  0  0  0  0  0  0
  135.2390  144.4810   96.6610 O   0  0  0  0  0  0  0  0  0  0  0  0
  134.4010  144.0650   96.9560 H   0  0  0  0  0  0  0  0  0  0  0  0
  137.7070  145.0710   98.4190 O   0  0  0  0  0  0  0  0  0  0  0  0
  137.3910  145.3890   97.5480 H   0  0  0  0  0  0  0  0  0  0  0  0
  2  1  1  1  0  0  0
  3  2  1  0  0  0  0
  4  3  1  0  0  0  0
  5  8  1  6  0  0  0
  5  6  1  0  0  0  0
  5  4  1  0  0  0  0
  6 12  1  1  0  0  0
  6  7  1  0  0  0  0
  7  2  1  0  0  0  0
  8 10  1  0  0  0  0
  9  8  2  0  0  0  0
 10 11  1  0  0  0  0
 13 12  1  0  0  0  0
M  END
>  <MODEL>
9

>  <REMARK>
 VINA RESULT:      -4.6     12.615     13.600
  3 active torsions:
  status: ('A' for Active; 'I' for Inactive)
    1  A    between atoms: C_5  and  C_9 
    2  A    between atoms: C_6  and  O_8 
    3  A    between atoms: C_9  and  O_11 

>  <TORSDO>
F 3

$$$$
