../results/processed/lowest_conf/7XP5/docked/b3c.pdbqt
 OpenBabel07252416063D

 13 14  0  0  1  0  0  0  0  0999 V2000
  151.6120  132.9190   94.8670 C   0  0  0  0  0  1  0  0  0  0  0  0
  150.2150  132.7070   95.4370 C   0  0  1  0  0  3  0  0  0  0  0  0
  149.1760  133.6300   94.8090 C   0  0  0  0  0  2  0  0  0  0  0  0
  147.9300  132.9420   95.1510 N   0  0  0  0  0  0  0  0  0  0  0  0
  146.7790  133.4890   94.4480 C   0  0  0  0  0  1  0  0  0  0  0  0
  148.1660  131.5290   94.8310 C   0  0  0  0  0  2  0  0  0  0  0  0
  149.6540  131.2930   95.1710 C   0  0  2  0  0  3  0  0  0  0  0  0
  149.8850  130.3520   96.3300 C   0  0  0  0  0  0  0  0  0  0  0  0
  149.5400  130.7230   97.6330 C   0  0  0  0  0  3  0  0  0  0  0  0
  149.7530  129.8380   98.6860 C   0  0  0  0  0  3  0  0  0  0  0  0
  150.3040  128.6000   98.4030 C   0  0  0  0  0  3  0  0  0  0  0  0
  150.6460  128.2000   97.1600 N   0  0  0  0  0  0  0  0  0  0  0  0
  150.4270  129.0790   96.1570 C   0  0  0  0  0  3  0  0  0  0  0  0
  2  1  1  6  0  0  0
  3  4  1  0  0  0  0
  3  2  1  0  0  0  0
  5  4  1  0  0  0  0
  6  4  1  0  0  0  0
  6  7  1  0  0  0  0
  7  2  1  0  0  0  0
  7  8  1  1  0  0  0
  8  9  1  0  0  0  0
  9 10  2  0  0  0  0
 11 10  1  0  0  0  0
 12 11  2  0  0  0  0
 13  8  2  0  0  0  0
 13 12  1  0  0  0  0
M  END
>  <MODEL>
1

>  <REMARK>
 VINA RESULT:      -5.7      0.000      0.000
  1 active torsions:
  status: ('A' for Active; 'I' for Inactive)
    1  A    between atoms: C_7  and  C_8 

>  <TORSDO>
F 1

$$$$
../results/processed/lowest_conf/7XP5/docked/b3c.pdbqt
 OpenBabel07252416063D

 13 14  0  0  1  0  0  0  0  0999 V2000
  148.1690  131.3750   99.1670 C   0  0  0  0  0  1  0  0  0  0  0  0
  147.6820  132.8170   99.2300 C   0  0  1  0  0  3  0  0  0  0  0  0
  148.0250  133.6110   97.9730 C   0  0  0  0  0  2  0  0  0  0  0  0
  147.0920  134.7340   98.0740 N   0  0  0  0  0  0  0  0  0  0  0  0
  147.0370  135.5250   96.8540 C   0  0  0  0  0  1  0  0  0  0  0  0
  145.7960  134.1330   98.4140 C   0  0  0  0  0  2  0  0  0  0  0  0
  146.1460  132.9400   99.3290 C   0  0  2  0  0  3  0  0  0  0  0  0
  145.6690  133.0880  100.7540 C   0  0  0  0  0  0  0  0  0  0  0  0
  144.5080  132.4410  101.1920 C   0  0  0  0  0  3  0  0  0  0  0  0
  144.0900  132.5830  102.5120 C   0  0  0  0  0  3  0  0  0  0  0  0
  144.8500  133.3680  103.3610 C   0  0  0  0  0  3  0  0  0  0  0  0
  145.9780  134.0040  102.9830 N   0  0  0  0  0  0  0  0  0  0  0  0
  146.3620  133.8470  101.6960 C   0  0  0  0  0  3  0  0  0  0  0  0
  2  1  1  6  0  0  0
  2  7  1  0  0  0  0
  3  4  1  0  0  0  0
  3  2  1  0  0  0  0
  4  6  1  0  0  0  0
  5  4  1  0  0  0  0
  6  7  1  0  0  0  0
  7  8  1  1  0  0  0
  8  9  2  0  0  0  0
  8 13  1  0  0  0  0
  9 10  1  0  0  0  0
 10 11  2  0  0  0  0
 12 11  1  0  0  0  0
 13 12  2  0  0  0  0
M  END
>  <MODEL>
2

>  <REMARK>
 VINA RESULT:      -5.6      5.341      6.332
  1 active torsions:
  status: ('A' for Active; 'I' for Inactive)
    1  A    between atoms: C_7  and  C_8 

>  <TORSDO>
F 1

$$$$
../results/processed/lowest_conf/7XP5/docked/b3c.pdbqt
 OpenBabel07252416063D

 13 14  0  0  1  0  0  0  0  0999 V2000
  148.3790  135.9540   98.9810 C   0  0  0  0  0  1  0  0  0  0  0  0
  147.5540  135.0750   98.0500 C   0  0  1  0  0  3  0  0  0  0  0  0
  147.9590  135.2230   96.5870 C   0  0  0  0  0  2  0  0  0  0  0  0
  147.3920  134.0070   96.0030 N   0  0  0  0  0  0  0  0  0  0  0  0
  147.8540  133.7730   94.6430 C   0  0  0  0  0  1  0  0  0  0  0  0
  147.7680  132.9240   96.9200 C   0  0  0  0  0  2  0  0  0  0  0  0
  147.7230  133.5660   98.3240 C   0  0  2  0  0  3  0  0  0  0  0  0
  146.6420  133.0160   99.2240 C   0  0  0  0  0  0  0  0  0  0  0  0
  146.7760  131.7570   99.8180 C   0  0  0  0  0  3  0  0  0  0  0  0
  145.7720  131.2720  100.6520 C   0  0  0  0  0  3  0  0  0  0  0  0
  144.6600  132.0670  100.8720 C   0  0  0  0  0  3  0  0  0  0  0  0
  144.4930  133.2890  100.3240 N   0  0  0  0  0  0  0  0  0  0  0  0
  145.4840  133.7350   99.5200 C   0  0  0  0  0  3  0  0  0  0  0  0
  2  7  1  0  0  0  0
  2  1  1  1  0  0  0
  3  2  1  0  0  0  0
  4  3  1  0  0  0  0
  4  6  1  0  0  0  0
  5  4  1  0  0  0  0
  6  7  1  0  0  0  0
  7  8  1  1  0  0  0
  8 13  2  0  0  0  0
  8  9  1  0  0  0  0
  9 10  2  0  0  0  0
 10 11  1  0  0  0  0
 12 11  2  0  0  0  0
 13 12  1  0  0  0  0
M  END
>  <MODEL>
3

>  <REMARK>
 VINA RESULT:      -5.6      4.122      5.072
  1 active torsions:
  status: ('A' for Active; 'I' for Inactive)
    1  A    between atoms: C_7  and  C_8 

>  <TORSDO>
F 1

$$$$
../results/processed/lowest_conf/7XP5/docked/b3c.pdbqt
 OpenBabel07252416063D

 13 14  0  0  1  0  0  0  0  0999 V2000
  145.9980  130.6500  100.6380 C   0  0  0  0  0  1  0  0  0  0  0  0
  145.3270  132.0160  100.6880 C   0  0  1  0  0  3  0  0  0  0  0  0
  144.7530  132.3420  102.0640 C   0  0  0  0  0  2  0  0  0  0  0  0
  144.6070  133.7950  101.9820 N   0  0  0  0  0  0  0  0  0  0  0  0
  144.3070  134.3990  103.2720 C   0  0  0  0  0  1  0  0  0  0  0  0
  145.8710  134.2810  101.4140 C   0  0  0  0  0  2  0  0  0  0  0  0
  146.2970  133.1850  100.4130 C   0  0  2  0  0  3  0  0  0  0  0  0
  146.2810  133.6220   98.9680 C   0  0  0  0  0  0  0  0  0  0  0  0
  147.3020  133.2390   98.0920 C   0  0  0  0  0  3  0  0  0  0  0  0
  147.2650  133.6450   96.7610 C   0  0  0  0  0  3  0  0  0  0  0  0
  146.1990  134.4230   96.3420 C   0  0  0  0  0  3  0  0  0  0  0  0
  145.1910  134.8100   97.1500 N   0  0  0  0  0  0  0  0  0  0  0  0
  145.2520  134.4000   98.4370 C   0  0  0  0  0  3  0  0  0  0  0  0
  2  1  1  1  0  0  0
  2  3  1  0  0  0  0
  4  3  1  0  0  0  0
  4  5  1  0  0  0  0
  6  4  1  0  0  0  0
  7  8  1  6  0  0  0
  7  2  1  0  0  0  0
  7  6  1  0  0  0  0
  9  8  2  0  0  0  0
 10  9  1  0  0  0  0
 11 10  2  0  0  0  0
 11 12  1  0  0  0  0
 12 13  2  0  0  0  0
 13  8  1  0  0  0  0
M  END
>  <MODEL>
4

>  <REMARK>
 VINA RESULT:      -5.5      5.269      7.300
  1 active torsions:
  status: ('A' for Active; 'I' for Inactive)
    1  A    between atoms: C_7  and  C_8 

>  <TORSDO>
F 1

$$$$
../results/processed/lowest_conf/7XP5/docked/b3c.pdbqt
 OpenBabel07252416063D

 13 14  0  0  1  0  0  0  0  0999 V2000
  136.5270  142.9370   95.9190 C   0  0  0  0  0  1  0  0  0  0  0  0
  137.9670  142.7640   96.3830 C   0  0  1  0  0  3  0  0  0  0  0  0
  138.9620  142.7550   95.2260 C   0  0  0  0  0  2  0  0  0  0  0  0
  140.2170  143.0460   95.9190 N   0  0  0  0  0  0  0  0  0  0  0  0
  141.3060  143.3440   95.0000 C   0  0  0  0  0  1  0  0  0  0  0  0
  139.9150  144.1680   96.8160 C   0  0  0  0  0  2  0  0  0  0  0  0
  138.4630  143.9190   97.2800 C   0  0  2  0  0  3  0  0  0  0  0  0
  138.3250  143.6080   98.7510 C   0  0  0  0  0  0  0  0  0  0  0  0
  137.0820  143.2750   99.2980 C   0  0  0  0  0  3  0  0  0  0  0  0
  136.9760  142.9830  100.6560 C   0  0  0  0  0  3  0  0  0  0  0  0
  138.1230  143.0300  101.4290 C   0  0  0  0  0  3  0  0  0  0  0  0
  139.3430  143.3410  100.9410 N   0  0  0  0  0  0  0  0  0  0  0  0
  139.4160  143.6180   99.6190 C   0  0  0  0  0  3  0  0  0  0  0  0
  2  1  1  6  0  0  0
  2  7  1  0  0  0  0
  3  4  1  0  0  0  0
  3  2  1  0  0  0  0
  4  6  1  0  0  0  0
  5  4  1  0  0  0  0
  6  7  1  0  0  0  0
  7  8  1  1  0  0  0
  8  9  2  0  0  0  0
  8 13  1  0  0  0  0
  9 10  1  0  0  0  0
 10 11  2  0  0  0  0
 12 11  1  0  0  0  0
 13 12  2  0  0  0  0
M  END
>  <MODEL>
5

>  <REMARK>
 VINA RESULT:      -5.5     15.011     16.714
  1 active torsions:
  status: ('A' for Active; 'I' for Inactive)
    1  A    between atoms: C_7  and  C_8 

>  <TORSDO>
F 1

$$$$
../results/processed/lowest_conf/7XP5/docked/b3c.pdbqt
 OpenBabel07252416063D

 13 14  0  0  1  0  0  0  0  0999 V2000
  148.2830  131.2140   99.3580 C   0  0  0  0  0  1  0  0  0  0  0  0
  147.1190  132.1540   99.6420 C   0  0  1  0  0  3  0  0  0  0  0  0
  146.0410  131.5120  100.5110 C   0  0  0  0  0  2  0  0  0  0  0  0
  145.3260  132.6890  101.0050 N   0  0  0  0  0  0  0  0  0  0  0  0
  144.3880  132.3660  102.0700 C   0  0  0  0  0  1  0  0  0  0  0  0
  146.3700  133.6250  101.4380 C   0  0  0  0  0  2  0  0  0  0  0  0
  147.5280  133.4110  100.4390 C   0  0  2  0  0  3  0  0  0  0  0  0
  147.8070  134.5960   99.5470 C   0  0  0  0  0  0  0  0  0  0  0  0
  148.5870  135.6650   99.9990 C   0  0  0  0  0  3  0  0  0  0  0  0
  148.8400  136.7450   99.1570 C   0  0  0  0  0  3  0  0  0  0  0  0
  148.3060  136.7220   97.8810 C   0  0  0  0  0  3  0  0  0  0  0  0
  147.5530  135.7100   97.4020 N   0  0  0  0  0  0  0  0  0  0  0  0
  147.3250  134.6730   98.2400 C   0  0  0  0  0  3  0  0  0  0  0  0
  2  1  1  1  0  0  0
  2  7  1  0  0  0  0
  2  3  1  0  0  0  0
  3  4  1  0  0  0  0
  4  6  1  0  0  0  0
  4  5  1  0  0  0  0
  7  8  1  6  0  0  0
  7  6  1  0  0  0  0
  8  9  1  0  0  0  0
 10  9  2  0  0  0  0
 11 10  1  0  0  0  0
 12 11  2  0  0  0  0
 12 13  1  0  0  0  0
 13  8  2  0  0  0  0
M  END
>  <MODEL>
6

>  <REMARK>
 VINA RESULT:      -5.5      4.853      6.775
  1 active torsions:
  status: ('A' for Active; 'I' for Inactive)
    1  A    between atoms: C_7  and  C_8 

>  <TORSDO>
F 1

$$$$
../results/processed/lowest_conf/7XP5/docked/b3c.pdbqt
 OpenBabel07252416063D

 13 14  0  0  1  0  0  0  0  0999 V2000
  146.9760  132.2460   94.3080 C   0  0  0  0  0  1  0  0  0  0  0  0
  148.0500  132.7130   95.2810 C   0  0  1  0  0  3  0  0  0  0  0  0
  149.2990  133.2340   94.5760 C   0  0  0  0  0  2  0  0  0  0  0  0
  149.9310  134.0140   95.6410 N   0  0  0  0  0  0  0  0  0  0  0  0
  151.0300  134.8350   95.1550 C   0  0  0  0  0  1  0  0  0  0  0  0
  148.8500  134.8130   96.2320 C   0  0  0  0  0  2  0  0  0  0  0  0
  147.6050  133.9020   96.1590 C   0  0  2  0  0  3  0  0  0  0  0  0
  147.0770  133.4630   97.5040 C   0  0  0  0  0  0  0  0  0  0  0  0
  147.7870  132.5480   98.2880 C   0  0  0  0  0  3  0  0  0  0  0  0
  147.2880  132.1620   99.5290 C   0  0  0  0  0  3  0  0  0  0  0  0
  146.0890  132.7080   99.9530 C   0  0  0  0  0  3  0  0  0  0  0  0
  145.3740  133.5970   99.2310 N   0  0  0  0  0  0  0  0  0  0  0  0
  145.8840  133.9550   98.0310 C   0  0  0  0  0  3  0  0  0  0  0  0
  2  1  1  6  0  0  0
  2  7  1  0  0  0  0
  3  2  1  0  0  0  0
  3  4  1  0  0  0  0
  4  6  1  0  0  0  0
  5  4  1  0  0  0  0
  7  6  1  0  0  0  0
  7  8  1  1  0  0  0
  8 13  2  0  0  0  0
  8  9  1  0  0  0  0
  9 10  2  0  0  0  0
 10 11  1  0  0  0  0
 12 11  2  0  0  0  0
 13 12  1  0  0  0  0
M  END
>  <MODEL>
7

>  <REMARK>
 VINA RESULT:      -5.3      3.106      4.492
  1 active torsions:
  status: ('A' for Active; 'I' for Inactive)
    1  A    between atoms: C_7  and  C_8 

>  <TORSDO>
F 1

$$$$
../results/processed/lowest_conf/7XP5/docked/b3c.pdbqt
 OpenBabel07252416063D

 13 14  0  0  1  0  0  0  0  0999 V2000
  139.8200  145.2790   97.7440 C   0  0  0  0  0  1  0  0  0  0  0  0
  139.0910  144.0190   98.1900 C   0  0  1  0  0  3  0  0  0  0  0  0
  139.1970  143.7770   99.6920 C   0  0  0  0  0  2  0  0  0  0  0  0
  138.0890  142.8470   99.9160 N   0  0  0  0  0  0  0  0  0  0  0  0
  137.8070  142.6450  101.3300 C   0  0  0  0  0  1  0  0  0  0  0  0
  136.9480  143.4200   99.1910 C   0  0  0  0  0  2  0  0  0  0  0  0
  137.5690  144.0710   97.9360 C   0  0  2  0  0  3  0  0  0  0  0  0
  137.1760  143.4120   96.6350 C   0  0  0  0  0  0  0  0  0  0  0  0
  138.1440  142.8400   95.8020 C   0  0  0  0  0  3  0  0  0  0  0  0
  137.7610  142.2300   94.6110 C   0  0  0  0  0  3  0  0  0  0  0  0
  136.4150  142.2050   94.2880 C   0  0  0  0  0  3  0  0  0  0  0  0
  135.4490  142.7390   95.0650 N   0  0  0  0  0  0  0  0  0  0  0  0
  135.8490  143.3240   96.2170 C   0  0  0  0  0  3  0  0  0  0  0  0
  2  1  1  1  0  0  0
  2  3  1  0  0  0  0
  3  4  1  0  0  0  0
  4  5  1  0  0  0  0
  6  4  1  0  0  0  0
  7  8  1  6  0  0  0
  7  2  1  0  0  0  0
  7  6  1  0  0  0  0
  9  8  2  0  0  0  0
 10  9  1  0  0  0  0
 11 10  2  0  0  0  0
 11 12  1  0  0  0  0
 12 13  2  0  0  0  0
 13  8  1  0  0  0  0
M  END
>  <MODEL>
8

>  <REMARK>
 VINA RESULT:      -5.1     16.497     17.545
  1 active torsions:
  status: ('A' for Active; 'I' for Inactive)
    1  A    between atoms: C_7  and  C_8 

>  <TORSDO>
F 1

$$$$
../results/processed/lowest_conf/7XP5/docked/b3c.pdbqt
 OpenBabel07252416063D

 13 14  0  0  1  0  0  0  0  0999 V2000
  148.5550  136.3070   98.6380 C   0  0  0  0  0  1  0  0  0  0  0  0
  147.9920  134.9450   99.0220 C   0  0  1  0  0  3  0  0  0  0  0  0
  147.6240  134.8530  100.4990 C   0  0  0  0  0  2  0  0  0  0  0  0
  146.7240  133.7000  100.5040 N   0  0  0  0  0  0  0  0  0  0  0  0
  146.0220  133.5450  101.7700 C   0  0  0  0  0  1  0  0  0  0  0  0
  145.8090  133.9160   99.3770 C   0  0  0  0  0  2  0  0  0  0  0  0
  146.6740  134.6010   98.2960 C   0  0  2  0  0  3  0  0  0  0  0  0
  146.8960  133.7670   97.0570 C   0  0  0  0  0  0  0  0  0  0  0  0
  148.0990  133.0810   96.8610 C   0  0  0  0  0  3  0  0  0  0  0  0
  148.2810  132.3110   95.7160 C   0  0  0  0  0  3  0  0  0  0  0  0
  147.2480  132.2450   94.7980 C   0  0  0  0  0  3  0  0  0  0  0  0
  146.0690  132.8850   94.9500 N   0  0  0  0  0  0  0  0  0  0  0  0
  145.9190  133.6240   96.0720 C   0  0  0  0  0  3  0  0  0  0  0  0
  2  1  1  6  0  0  0
  2  3  1  0  0  0  0
  3  4  1  0  0  0  0
  4  5  1  0  0  0  0
  6  4  1  0  0  0  0
  7  8  1  6  0  0  0
  7  2  1  0  0  0  0
  7  6  1  0  0  0  0
  9  8  1  0  0  0  0
 10  9  2  0  0  0  0
 11 12  2  0  0  0  0
 11 10  1  0  0  0  0
 12 13  1  0  0  0  0
 13  8  2  0  0  0  0
M  END
>  <MODEL>
9

>  <REMARK>
 VINA RESULT:      -5.1      3.958      5.625
  1 active torsions:
  status: ('A' for Active; 'I' for Inactive)
    1  A    between atoms: C_7  and  C_8 

>  <TORSDO>
F 1

$$$$
