MODEL 1
REMARK VINA RESULT:      -5.7      0.000      0.000
REMARK  1 active torsions:
REMARK  status: ('A' for Active; 'I' for Inactive)
REMARK    1  A    between atoms: C_7  and  C_8 
ROOT
ATOM      1  C   UNL d   1     151.612 132.919  94.867  0.00  0.00     0.012 C 
ATOM      2  C   UNL d   1     150.215 132.707  95.437  0.00  0.00     0.020 C 
ATOM      3  C   UNL d   1     149.176 133.630  94.809  0.00  0.00     0.277 C 
ATOM      4  N   UNL d   1     147.930 132.942  95.151  0.00  0.00     0.085 N 
ATOM      5  C   UNL d   1     146.779 133.489  94.448  0.00  0.00     0.309 C 
ATOM      6  C   UNL d   1     148.166 131.529  94.831  0.00  0.00     0.281 C 
ATOM      7  C   UNL d   1     149.654 131.293  95.171  0.00  0.00     0.054 C 
ENDROOT
BRANCH   7   8
ATOM      8  C   UNL d   1     149.885 130.352  96.330  0.00  0.00    -0.034 A 
ATOM      9  C   UNL d   1     149.540 130.723  97.633  0.00  0.00     0.010 A 
ATOM     10  C   UNL d   1     149.753 129.838  98.686  0.00  0.00     0.020 A 
ATOM     11  C   UNL d   1     150.304 128.600  98.403  0.00  0.00     0.116 A 
ATOM     12  N   UNL d   1     150.646 128.200  97.160  0.00  0.00    -0.273 NA
ATOM     13  C   UNL d   1     150.427 129.079  96.157  0.00  0.00     0.123 A 
ENDBRANCH   7   8
TORSDOF 1
ENDMDL
MODEL 2
REMARK VINA RESULT:      -5.6      5.341      6.332
REMARK  1 active torsions:
REMARK  status: ('A' for Active; 'I' for Inactive)
REMARK    1  A    between atoms: C_7  and  C_8 
ROOT
ATOM      1  C   UNL d   1     148.169 131.375  99.167  0.00  0.00     0.012 C 
ATOM      2  C   UNL d   1     147.682 132.817  99.230  0.00  0.00     0.020 C 
ATOM      3  C   UNL d   1     148.025 133.611  97.973  0.00  0.00     0.277 C 
ATOM      4  N   UNL d   1     147.092 134.734  98.074  0.00  0.00     0.085 N 
ATOM      5  C   UNL d   1     147.037 135.525  96.854  0.00  0.00     0.309 C 
ATOM      6  C   UNL d   1     145.796 134.133  98.414  0.00  0.00     0.281 C 
ATOM      7  C   UNL d   1     146.146 132.940  99.329  0.00  0.00     0.054 C 
ENDROOT
BRANCH   7   8
ATOM      8  C   UNL d   1     145.669 133.088 100.754  0.00  0.00    -0.034 A 
ATOM      9  C   UNL d   1     144.508 132.441 101.192  0.00  0.00     0.010 A 
ATOM     10  C   UNL d   1     144.090 132.583 102.512  0.00  0.00     0.020 A 
ATOM     11  C   UNL d   1     144.850 133.368 103.361  0.00  0.00     0.116 A 
ATOM     12  N   UNL d   1     145.978 134.004 102.983  0.00  0.00    -0.273 NA
ATOM     13  C   UNL d   1     146.362 133.847 101.696  0.00  0.00     0.123 A 
ENDBRANCH   7   8
TORSDOF 1
ENDMDL
MODEL 3
REMARK VINA RESULT:      -5.6      4.122      5.072
REMARK  1 active torsions:
REMARK  status: ('A' for Active; 'I' for Inactive)
REMARK    1  A    between atoms: C_7  and  C_8 
ROOT
ATOM      1  C   UNL d   1     148.379 135.954  98.981  0.00  0.00     0.012 C 
ATOM      2  C   UNL d   1     147.554 135.075  98.050  0.00  0.00     0.020 C 
ATOM      3  C   UNL d   1     147.959 135.223  96.587  0.00  0.00     0.277 C 
ATOM      4  N   UNL d   1     147.392 134.007  96.003  0.00  0.00     0.085 N 
ATOM      5  C   UNL d   1     147.854 133.773  94.643  0.00  0.00     0.309 C 
ATOM      6  C   UNL d   1     147.768 132.924  96.920  0.00  0.00     0.281 C 
ATOM      7  C   UNL d   1     147.723 133.566  98.324  0.00  0.00     0.054 C 
ENDROOT
BRANCH   7   8
ATOM      8  C   UNL d   1     146.642 133.016  99.224  0.00  0.00    -0.034 A 
ATOM      9  C   UNL d   1     146.776 131.757  99.818  0.00  0.00     0.010 A 
ATOM     10  C   UNL d   1     145.772 131.272 100.652  0.00  0.00     0.020 A 
ATOM     11  C   UNL d   1     144.660 132.067 100.872  0.00  0.00     0.116 A 
ATOM     12  N   UNL d   1     144.493 133.289 100.324  0.00  0.00    -0.273 NA
ATOM     13  C   UNL d   1     145.484 133.735  99.520  0.00  0.00     0.123 A 
ENDBRANCH   7   8
TORSDOF 1
ENDMDL
MODEL 4
REMARK VINA RESULT:      -5.5      5.269      7.300
REMARK  1 active torsions:
REMARK  status: ('A' for Active; 'I' for Inactive)
REMARK    1  A    between atoms: C_7  and  C_8 
ROOT
ATOM      1  C   UNL d   1     145.998 130.650 100.638  0.00  0.00     0.012 C 
ATOM      2  C   UNL d   1     145.327 132.016 100.688  0.00  0.00     0.020 C 
ATOM      3  C   UNL d   1     144.753 132.342 102.064  0.00  0.00     0.277 C 
ATOM      4  N   UNL d   1     144.607 133.795 101.982  0.00  0.00     0.085 N 
ATOM      5  C   UNL d   1     144.307 134.399 103.272  0.00  0.00     0.309 C 
ATOM      6  C   UNL d   1     145.871 134.281 101.414  0.00  0.00     0.281 C 
ATOM      7  C   UNL d   1     146.297 133.185 100.413  0.00  0.00     0.054 C 
ENDROOT
BRANCH   7   8
ATOM      8  C   UNL d   1     146.281 133.622  98.968  0.00  0.00    -0.034 A 
ATOM      9  C   UNL d   1     147.302 133.239  98.092  0.00  0.00     0.010 A 
ATOM     10  C   UNL d   1     147.265 133.645  96.761  0.00  0.00     0.020 A 
ATOM     11  C   UNL d   1     146.199 134.423  96.342  0.00  0.00     0.116 A 
ATOM     12  N   UNL d   1     145.191 134.810  97.150  0.00  0.00    -0.273 NA
ATOM     13  C   UNL d   1     145.252 134.400  98.437  0.00  0.00     0.123 A 
ENDBRANCH   7   8
TORSDOF 1
ENDMDL
MODEL 5
REMARK VINA RESULT:      -5.5     15.011     16.714
REMARK  1 active torsions:
REMARK  status: ('A' for Active; 'I' for Inactive)
REMARK    1  A    between atoms: C_7  and  C_8 
ROOT
ATOM      1  C   UNL d   1     136.527 142.937  95.919  0.00  0.00     0.012 C 
ATOM      2  C   UNL d   1     137.967 142.764  96.383  0.00  0.00     0.020 C 
ATOM      3  C   UNL d   1     138.962 142.755  95.226  0.00  0.00     0.277 C 
ATOM      4  N   UNL d   1     140.217 143.046  95.919  0.00  0.00     0.085 N 
ATOM      5  C   UNL d   1     141.306 143.344  95.000  0.00  0.00     0.309 C 
ATOM      6  C   UNL d   1     139.915 144.168  96.816  0.00  0.00     0.281 C 
ATOM      7  C   UNL d   1     138.463 143.919  97.280  0.00  0.00     0.054 C 
ENDROOT
BRANCH   7   8
ATOM      8  C   UNL d   1     138.325 143.608  98.751  0.00  0.00    -0.034 A 
ATOM      9  C   UNL d   1     137.082 143.275  99.298  0.00  0.00     0.010 A 
ATOM     10  C   UNL d   1     136.976 142.983 100.656  0.00  0.00     0.020 A 
ATOM     11  C   UNL d   1     138.123 143.030 101.429  0.00  0.00     0.116 A 
ATOM     12  N   UNL d   1     139.343 143.341 100.941  0.00  0.00    -0.273 NA
ATOM     13  C   UNL d   1     139.416 143.618  99.619  0.00  0.00     0.123 A 
ENDBRANCH   7   8
TORSDOF 1
ENDMDL
MODEL 6
REMARK VINA RESULT:      -5.5      4.853      6.775
REMARK  1 active torsions:
REMARK  status: ('A' for Active; 'I' for Inactive)
REMARK    1  A    between atoms: C_7  and  C_8 
ROOT
ATOM      1  C   UNL d   1     148.283 131.214  99.358  0.00  0.00     0.012 C 
ATOM      2  C   UNL d   1     147.119 132.154  99.642  0.00  0.00     0.020 C 
ATOM      3  C   UNL d   1     146.041 131.512 100.511  0.00  0.00     0.277 C 
ATOM      4  N   UNL d   1     145.326 132.689 101.005  0.00  0.00     0.085 N 
ATOM      5  C   UNL d   1     144.388 132.366 102.070  0.00  0.00     0.309 C 
ATOM      6  C   UNL d   1     146.370 133.625 101.438  0.00  0.00     0.281 C 
ATOM      7  C   UNL d   1     147.528 133.411 100.439  0.00  0.00     0.054 C 
ENDROOT
BRANCH   7   8
ATOM      8  C   UNL d   1     147.807 134.596  99.547  0.00  0.00    -0.034 A 
ATOM      9  C   UNL d   1     148.587 135.665  99.999  0.00  0.00     0.010 A 
ATOM     10  C   UNL d   1     148.840 136.745  99.157  0.00  0.00     0.020 A 
ATOM     11  C   UNL d   1     148.306 136.722  97.881  0.00  0.00     0.116 A 
ATOM     12  N   UNL d   1     147.553 135.710  97.402  0.00  0.00    -0.273 NA
ATOM     13  C   UNL d   1     147.325 134.673  98.240  0.00  0.00     0.123 A 
ENDBRANCH   7   8
TORSDOF 1
ENDMDL
MODEL 7
REMARK VINA RESULT:      -5.3      3.106      4.492
REMARK  1 active torsions:
REMARK  status: ('A' for Active; 'I' for Inactive)
REMARK    1  A    between atoms: C_7  and  C_8 
ROOT
ATOM      1  C   UNL d   1     146.976 132.246  94.308  0.00  0.00     0.012 C 
ATOM      2  C   UNL d   1     148.050 132.713  95.281  0.00  0.00     0.020 C 
ATOM      3  C   UNL d   1     149.299 133.234  94.576  0.00  0.00     0.277 C 
ATOM      4  N   UNL d   1     149.931 134.014  95.641  0.00  0.00     0.085 N 
ATOM      5  C   UNL d   1     151.030 134.835  95.155  0.00  0.00     0.309 C 
ATOM      6  C   UNL d   1     148.850 134.813  96.232  0.00  0.00     0.281 C 
ATOM      7  C   UNL d   1     147.605 133.902  96.159  0.00  0.00     0.054 C 
ENDROOT
BRANCH   7   8
ATOM      8  C   UNL d   1     147.077 133.463  97.504  0.00  0.00    -0.034 A 
ATOM      9  C   UNL d   1     147.787 132.548  98.288  0.00  0.00     0.010 A 
ATOM     10  C   UNL d   1     147.288 132.162  99.529  0.00  0.00     0.020 A 
ATOM     11  C   UNL d   1     146.089 132.708  99.953  0.00  0.00     0.116 A 
ATOM     12  N   UNL d   1     145.374 133.597  99.231  0.00  0.00    -0.273 NA
ATOM     13  C   UNL d   1     145.884 133.955  98.031  0.00  0.00     0.123 A 
ENDBRANCH   7   8
TORSDOF 1
ENDMDL
MODEL 8
REMARK VINA RESULT:      -5.1     16.497     17.545
REMARK  1 active torsions:
REMARK  status: ('A' for Active; 'I' for Inactive)
REMARK    1  A    between atoms: C_7  and  C_8 
ROOT
ATOM      1  C   UNL d   1     139.820 145.279  97.744  0.00  0.00     0.012 C 
ATOM      2  C   UNL d   1     139.091 144.019  98.190  0.00  0.00     0.020 C 
ATOM      3  C   UNL d   1     139.197 143.777  99.692  0.00  0.00     0.277 C 
ATOM      4  N   UNL d   1     138.089 142.847  99.916  0.00  0.00     0.085 N 
ATOM      5  C   UNL d   1     137.807 142.645 101.330  0.00  0.00     0.309 C 
ATOM      6  C   UNL d   1     136.948 143.420  99.191  0.00  0.00     0.281 C 
ATOM      7  C   UNL d   1     137.569 144.071  97.936  0.00  0.00     0.054 C 
ENDROOT
BRANCH   7   8
ATOM      8  C   UNL d   1     137.176 143.412  96.635  0.00  0.00    -0.034 A 
ATOM      9  C   UNL d   1     138.144 142.840  95.802  0.00  0.00     0.010 A 
ATOM     10  C   UNL d   1     137.761 142.230  94.611  0.00  0.00     0.020 A 
ATOM     11  C   UNL d   1     136.415 142.205  94.288  0.00  0.00     0.116 A 
ATOM     12  N   UNL d   1     135.449 142.739  95.065  0.00  0.00    -0.273 NA
ATOM     13  C   UNL d   1     135.849 143.324  96.217  0.00  0.00     0.123 A 
ENDBRANCH   7   8
TORSDOF 1
ENDMDL
MODEL 9
REMARK VINA RESULT:      -5.1      3.958      5.625
REMARK  1 active torsions:
REMARK  status: ('A' for Active; 'I' for Inactive)
REMARK    1  A    between atoms: C_7  and  C_8 
ROOT
ATOM      1  C   UNL d   1     148.555 136.307  98.638  0.00  0.00     0.012 C 
ATOM      2  C   UNL d   1     147.992 134.945  99.022  0.00  0.00     0.020 C 
ATOM      3  C   UNL d   1     147.624 134.853 100.499  0.00  0.00     0.277 C 
ATOM      4  N   UNL d   1     146.724 133.700 100.504  0.00  0.00     0.085 N 
ATOM      5  C   UNL d   1     146.022 133.545 101.770  0.00  0.00     0.309 C 
ATOM      6  C   UNL d   1     145.809 133.916  99.377  0.00  0.00     0.281 C 
ATOM      7  C   UNL d   1     146.674 134.601  98.296  0.00  0.00     0.054 C 
ENDROOT
BRANCH   7   8
ATOM      8  C   UNL d   1     146.896 133.767  97.057  0.00  0.00    -0.034 A 
ATOM      9  C   UNL d   1     148.099 133.081  96.861  0.00  0.00     0.010 A 
ATOM     10  C   UNL d   1     148.281 132.311  95.716  0.00  0.00     0.020 A 
ATOM     11  C   UNL d   1     147.248 132.245  94.798  0.00  0.00     0.116 A 
ATOM     12  N   UNL d   1     146.069 132.885  94.950  0.00  0.00    -0.273 NA
ATOM     13  C   UNL d   1     145.919 133.624  96.072  0.00  0.00     0.123 A 
ENDBRANCH   7   8
TORSDOF 1
ENDMDL
