../results/processed/lowest_conf/7XP5/docked/b4.pdbqt
 OpenBabel07252416053D

 12 12  0  0  1  0  0  0  0  0999 V2000
  146.4400  133.0120  101.0460 C   0  0  0  0  0  0  0  0  0  0  0  0
  145.5820  131.9040  101.1250 C   0  0  0  0  0  3  0  0  0  0  0  0
  144.5870  131.8400  102.1050 C   0  0  0  0  0  3  0  0  0  0  0  0
  144.4320  132.8810  103.0160 C   0  0  0  0  0  3  0  0  0  0  0  0
  145.2670  133.9920  102.9480 C   0  0  0  0  0  3  0  0  0  0  0  0
  146.2610  134.0570  101.9700 C   0  0  0  0  0  3  0  0  0  0  0  0
  147.5310  133.1500   99.9910 C   0  0  1  0  0  3  0  0  0  0  0  0
  147.9450  131.8400   99.3060 C   0  0  0  0  0  1  0  0  0  0  0  0
  147.2070  134.1800   98.9890 N   0  0  0  0  0  0  0  0  0  0  0  0
  148.0480  135.3610   98.8680 C   0  0  0  0  0  1  0  0  0  0  0  0
  145.9750  134.1420   98.3650 C   0  0  0  0  0  3  0  0  0  0  0  0
  145.7310  133.6170   97.2860 O   0  0  0  0  0  0  0  0  0  0  0  0
  1  2  2  0  0  0  0
  1  6  1  0  0  0  0
  2  3  1  0  0  0  0
  3  4  2  0  0  0  0
  5  4  1  0  0  0  0
  6  5  2  0  0  0  0
  7  8  1  6  0  0  0
  7  1  1  0  0  0  0
  9  7  1  0  0  0  0
 10  9  1  0  0  0  0
 11  9  1  0  0  0  0
 12 11  2  0  0  0  0
M  END
>  <MODEL>
1

>  <REMARK>
 VINA RESULT:      -5.4      0.000      0.000
  3 active torsions:
  status: ('A' for Active; 'I' for Inactive)
    1  A    between atoms: C_2  and  C_3 
    2  A    between atoms: C_2  and  N_9 
    3  A    between atoms: N_9  and  C_11 

>  <TORSDO>
F 3

$$$$
../results/processed/lowest_conf/7XP5/docked/b4.pdbqt
 OpenBabel07252416053D

 12 12  0  0  1  0  0  0  0  0999 V2000
  146.3130  133.5480  100.0090 C   0  0  0  0  0  0  0  0  0  0  0  0
  147.1740  134.0870  100.9780 C   0  0  0  0  0  3  0  0  0  0  0  0
  148.1320  135.0430  100.6300 C   0  0  0  0  0  3  0  0  0  0  0  0
  148.2410  135.4780   99.3110 C   0  0  0  0  0  3  0  0  0  0  0  0
  147.3910  134.9620   98.3380 C   0  0  0  0  0  3  0  0  0  0  0  0
  146.4340  134.0070   98.6840 C   0  0  0  0  0  3  0  0  0  0  0  0
  145.2370  132.5170  100.3280 C   0  0  1  0  0  3  0  0  0  0  0  0
  145.7580  131.1170  100.6780 C   0  0  0  0  0  1  0  0  0  0  0  0
  144.2990  132.9950  101.3590 N   0  0  0  0  0  0  0  0  0  0  0  0
  143.4880  134.1760  101.1080 C   0  0  0  0  0  1  0  0  0  0  0  0
  144.3920  132.4790  102.6380 C   0  0  0  0  0  3  0  0  0  0  0  0
  145.0490  132.9490  103.5570 O   0  0  0  0  0  0  0  0  0  0  0  0
  1  7  1  0  0  0  0
  1  2  1  0  0  0  0
  3  2  2  0  0  0  0
  4  3  1  0  0  0  0
  5  6  1  0  0  0  0
  5  4  2  0  0  0  0
  6  1  2  0  0  0  0
  7  8  1  1  0  0  0
  7  9  1  0  0  0  0
  9 11  1  0  0  0  0
 10  9  1  0  0  0  0
 11 12  2  0  0  0  0
M  END
>  <MODEL>
2

>  <REMARK>
 VINA RESULT:      -5.3      2.454      4.336
  3 active torsions:
  status: ('A' for Active; 'I' for Inactive)
    1  A    between atoms: C_2  and  C_3 
    2  A    between atoms: C_2  and  N_9 
    3  A    between atoms: N_9  and  C_11 

>  <TORSDO>
F 3

$$$$
../results/processed/lowest_conf/7XP5/docked/b4.pdbqt
 OpenBabel07252416053D

 12 12  0  0  1  0  0  0  0  0999 V2000
  145.7080  134.1250  101.0640 C   0  0  0  0  0  0  0  0  0  0  0  0
  145.7430  133.8740  102.4440 C   0  0  0  0  0  3  0  0  0  0  0  0
  144.5600  133.7700  103.1820 C   0  0  0  0  0  3  0  0  0  0  0  0
  143.3270  133.9110  102.5510 C   0  0  0  0  0  3  0  0  0  0  0  0
  143.2710  134.1520  101.1820 C   0  0  0  0  0  3  0  0  0  0  0  0
  144.4520  134.2560  100.4440 C   0  0  0  0  0  3  0  0  0  0  0  0
  146.9600  134.2310  100.2020 C   0  0  1  0  0  3  0  0  0  0  0  0
  148.2800  134.3450  100.9790 C   0  0  0  0  0  1  0  0  0  0  0  0
  147.0390  133.1530   99.2010 N   0  0  0  0  0  0  0  0  0  0  0  0
  147.3400  131.7940   99.6250 C   0  0  0  0  0  1  0  0  0  0  0  0
  147.0860  133.4860   97.8610 C   0  0  0  0  0  3  0  0  0  0  0  0
  146.2900  133.1290   97.0030 O   0  0  0  0  0  0  0  0  0  0  0  0
  1  2  1  0  0  0  0
  2  3  2  0  0  0  0
  4  3  1  0  0  0  0
  5  4  2  0  0  0  0
  6  1  2  0  0  0  0
  6  5  1  0  0  0  0
  7  8  1  1  0  0  0
  7  1  1  0  0  0  0
  9 10  1  0  0  0  0
  9  7  1  0  0  0  0
 11  9  1  0  0  0  0
 12 11  2  0  0  0  0
M  END
>  <MODEL>
3

>  <REMARK>
 VINA RESULT:      -5.2      1.453      2.156
  3 active torsions:
  status: ('A' for Active; 'I' for Inactive)
    1  A    between atoms: C_2  and  C_3 
    2  A    between atoms: C_2  and  N_9 
    3  A    between atoms: N_9  and  C_11 

>  <TORSDO>
F 3

$$$$
../results/processed/lowest_conf/7XP5/docked/b4.pdbqt
 OpenBabel07252416053D

 12 12  0  0  1  0  0  0  0  0999 V2000
  146.1410  133.6820  100.0800 C   0  0  0  0  0  0  0  0  0  0  0  0
  146.4220  134.0610   98.7580 C   0  0  0  0  0  3  0  0  0  0  0  0
  147.4660  134.9450   98.4750 C   0  0  0  0  0  3  0  0  0  0  0  0
  148.2470  135.4600   99.5060 C   0  0  0  0  0  3  0  0  0  0  0  0
  147.9900  135.0890  100.8220 C   0  0  0  0  0  3  0  0  0  0  0  0
  146.9470  134.2060  101.1060 C   0  0  0  0  0  3  0  0  0  0  0  0
  145.0290  132.7080  100.4510 C   0  0  1  0  0  3  0  0  0  0  0  0
  145.4900  131.2750  100.7520 C   0  0  0  0  0  1  0  0  0  0  0  0
  144.1840  133.2220  101.5440 N   0  0  0  0  0  0  0  0  0  0  0  0
  144.1210  132.5050  102.8080 C   0  0  0  0  0  1  0  0  0  0  0  0
  143.2670  134.2190  101.2680 C   0  0  0  0  0  3  0  0  0  0  0  0
  142.8380  134.5150  100.1600 O   0  0  0  0  0  0  0  0  0  0  0  0
  1  7  1  0  0  0  0
  1  6  1  0  0  0  0
  2  1  2  0  0  0  0
  3  2  1  0  0  0  0
  3  4  2  0  0  0  0
  4  5  1  0  0  0  0
  5  6  2  0  0  0  0
  7  8  1  1  0  0  0
  7  9  1  0  0  0  0
  9 10  1  0  0  0  0
 11  9  1  0  0  0  0
 12 11  2  0  0  0  0
M  END
>  <MODEL>
4

>  <REMARK>
 VINA RESULT:      -5.2      2.092      4.036
  3 active torsions:
  status: ('A' for Active; 'I' for Inactive)
    1  A    between atoms: C_2  and  C_3 
    2  A    between atoms: C_2  and  N_9 
    3  A    between atoms: N_9  and  C_11 

>  <TORSDO>
F 3

$$$$
../results/processed/lowest_conf/7XP5/docked/b4.pdbqt
 OpenBabel07252416053D

 12 12  0  0  1  0  0  0  0  0999 V2000
  137.7270  143.2300   97.8850 C   0  0  0  0  0  0  0  0  0  0  0  0
  139.0920  143.4960   97.6950 C   0  0  0  0  0  3  0  0  0  0  0  0
  139.6850  143.3260   96.4410 C   0  0  0  0  0  3  0  0  0  0  0  0
  138.9230  142.8930   95.3590 C   0  0  0  0  0  3  0  0  0  0  0  0
  137.5660  142.6320   95.5260 C   0  0  0  0  0  3  0  0  0  0  0  0
  136.9730  142.8010   96.7780 C   0  0  0  0  0  3  0  0  0  0  0  0
  137.0190  143.4140   99.2220 C   0  0  1  0  0  3  0  0  0  0  0  0
  135.4880  143.3130   99.1690 C   0  0  0  0  0  1  0  0  0  0  0  0
  137.5620  142.5250  100.2640 N   0  0  0  0  0  0  0  0  0  0  0  0
  137.0730  141.1590  100.3770 C   0  0  0  0  0  1  0  0  0  0  0  0
  138.3260  143.0710  101.2780 C   0  0  0  0  0  3  0  0  0  0  0  0
  137.9080  143.4840  102.3520 O   0  0  0  0  0  0  0  0  0  0  0  0
  1  7  1  0  0  0  0
  2  1  1  0  0  0  0
  3  2  2  0  0  0  0
  4  5  2  0  0  0  0
  4  3  1  0  0  0  0
  5  6  1  0  0  0  0
  6  1  2  0  0  0  0
  7  8  1  6  0  0  0
  7  9  1  0  0  0  0
  9 10  1  0  0  0  0
  9 11  1  0  0  0  0
 11 12  2  0  0  0  0
M  END
>  <MODEL>
5

>  <REMARK>
 VINA RESULT:      -5.1     12.406     13.812
  3 active torsions:
  status: ('A' for Active; 'I' for Inactive)
    1  A    between atoms: C_2  and  C_3 
    2  A    between atoms: C_2  and  N_9 
    3  A    between atoms: N_9  and  C_11 

>  <TORSDO>
F 3

$$$$
../results/processed/lowest_conf/7XP5/docked/b4.pdbqt
 OpenBabel07252416053D

 12 12  0  0  1  0  0  0  0  0999 V2000
  137.6070  143.3200   98.0760 C   0  0  0  0  0  0  0  0  0  0  0  0
  137.1020  142.7440   96.9000 C   0  0  0  0  0  3  0  0  0  0  0  0
  137.8830  142.6820   95.7430 C   0  0  0  0  0  3  0  0  0  0  0  0
  139.1790  143.1900   95.7440 C   0  0  0  0  0  3  0  0  0  0  0  0
  139.7010  143.7570   96.9030 C   0  0  0  0  0  3  0  0  0  0  0  0
  138.9220  143.8200   98.0590 C   0  0  0  0  0  3  0  0  0  0  0  0
  136.8130  143.4010   99.3750 C   0  0  1  0  0  3  0  0  0  0  0  0
  135.2960  143.2260   99.2240 C   0  0  0  0  0  1  0  0  0  0  0  0
  137.3410  142.4910  100.4060 N   0  0  0  0  0  0  0  0  0  0  0  0
  137.0210  141.0730  100.3500 C   0  0  0  0  0  1  0  0  0  0  0  0
  137.9070  143.0280  101.5460 C   0  0  0  0  0  3  0  0  0  0  0  0
  139.0810  143.3460  101.6860 O   0  0  0  0  0  0  0  0  0  0  0  0
  1  7  1  0  0  0  0
  2  1  2  0  0  0  0
  3  4  2  0  0  0  0
  3  2  1  0  0  0  0
  4  5  1  0  0  0  0
  5  6  2  0  0  0  0
  6  1  1  0  0  0  0
  7  8  1  6  0  0  0
  7  9  1  0  0  0  0
  9 11  1  0  0  0  0
 10  9  1  0  0  0  0
 11 12  2  0  0  0  0
M  END
>  <MODEL>
6

>  <REMARK>
 VINA RESULT:      -5.1     12.352     13.738
  3 active torsions:
  status: ('A' for Active; 'I' for Inactive)
    1  A    between atoms: C_2  and  C_3 
    2  A    between atoms: C_2  and  N_9 
    3  A    between atoms: N_9  and  C_11 

>  <TORSDO>
F 3

$$$$
../results/processed/lowest_conf/7XP5/docked/b4.pdbqt
 OpenBabel07252416053D

 12 12  0  0  1  0  0  0  0  0999 V2000
  149.3060  131.3530   96.3270 C   0  0  0  0  0  0  0  0  0  0  0  0
  149.3900  130.9490   97.6680 C   0  0  0  0  0  3  0  0  0  0  0  0
  149.8350  129.6660   98.0010 C   0  0  0  0  0  3  0  0  0  0  0  0
  150.2060  128.7720   97.0000 C   0  0  0  0  0  3  0  0  0  0  0  0
  150.1380  129.1570   95.6650 C   0  0  0  0  0  3  0  0  0  0  0  0
  149.6930  130.4380   95.3320 C   0  0  0  0  0  3  0  0  0  0  0  0
  148.8470  132.7420   95.9000 C   0  0  1  0  0  3  0  0  0  0  0  0
  149.4070  133.2310   94.5570 C   0  0  0  0  0  1  0  0  0  0  0  0
  147.3790  132.8750   95.9300 N   0  0  0  0  0  0  0  0  0  0  0  0
  146.5940  132.4820   94.7710 C   0  0  0  0  0  1  0  0  0  0  0  0
  146.7950  133.6090   96.9450 C   0  0  0  0  0  3  0  0  0  0  0  0
  145.9810  133.1900   97.7580 O   0  0  0  0  0  0  0  0  0  0  0  0
  1  2  1  0  0  0  0
  2  3  2  0  0  0  0
  4  3  1  0  0  0  0
  5  4  2  0  0  0  0
  6  5  1  0  0  0  0
  6  1  2  0  0  0  0
  7  8  1  6  0  0  0
  7  9  1  0  0  0  0
  7  1  1  0  0  0  0
  9 11  1  0  0  0  0
 10  9  1  0  0  0  0
 11 12  2  0  0  0  0
M  END
>  <MODEL>
7

>  <REMARK>
 VINA RESULT:      -5.1      4.277      6.139
  3 active torsions:
  status: ('A' for Active; 'I' for Inactive)
    1  A    between atoms: C_2  and  C_3 
    2  A    between atoms: C_2  and  N_9 
    3  A    between atoms: N_9  and  C_11 

>  <TORSDO>
F 3

$$$$
../results/processed/lowest_conf/7XP5/docked/b4.pdbqt
 OpenBabel07252416053D

 12 12  0  0  1  0  0  0  0  0999 V2000
  149.7410  130.5820   96.3410 C   0  0  0  0  0  0  0  0  0  0  0  0
  149.3760  130.9330   97.6500 C   0  0  0  0  0  3  0  0  0  0  0  0
  149.5640  130.0390   98.7080 C   0  0  0  0  0  3  0  0  0  0  0  0
  150.1230  128.7860   98.4750 C   0  0  0  0  0  3  0  0  0  0  0  0
  150.4990  128.4220   97.1860 C   0  0  0  0  0  3  0  0  0  0  0  0
  150.3120  129.3140   96.1280 C   0  0  0  0  0  3  0  0  0  0  0  0
  149.5780  131.5170   95.1490 C   0  0  1  0  0  3  0  0  0  0  0  0
  148.1330  131.7190   94.6700 C   0  0  0  0  0  1  0  0  0  0  0  0
  150.2390  132.8160   95.3680 N   0  0  0  0  0  0  0  0  0  0  0  0
  149.4370  134.0210   95.5060 C   0  0  0  0  0  1  0  0  0  0  0  0
  151.6050  132.9110   95.1780 C   0  0  0  0  0  3  0  0  0  0  0  0
  152.2860  133.9130   95.3530 O   0  0  0  0  0  0  0  0  0  0  0  0
  1  2  1  0  0  0  0
  2  3  2  0  0  0  0
  4  3  1  0  0  0  0
  5  4  2  0  0  0  0
  6  1  2  0  0  0  0
  6  5  1  0  0  0  0
  7  8  1  1  0  0  0
  7  9  1  0  0  0  0
  7  1  1  0  0  0  0
  9 10  1  0  0  0  0
 11 12  2  0  0  0  0
 11  9  1  0  0  0  0
M  END
>  <MODEL>
8

>  <REMARK>
 VINA RESULT:      -5.0      5.455      6.592
  3 active torsions:
  status: ('A' for Active; 'I' for Inactive)
    1  A    between atoms: C_2  and  C_3 
    2  A    between atoms: C_2  and  N_9 
    3  A    between atoms: N_9  and  C_11 

>  <TORSDO>
F 3

$$$$
../results/processed/lowest_conf/7XP5/docked/b4.pdbqt
 OpenBabel07252416053D

 12 12  0  0  1  0  0  0  0  0999 V2000
  146.4500  133.4760   99.3840 C   0  0  0  0  0  0  0  0  0  0  0  0
  145.2560  133.3890  100.1170 C   0  0  0  0  0  3  0  0  0  0  0  0
  144.8770  132.1900  100.7260 C   0  0  0  0  0  3  0  0  0  0  0  0
  145.6870  131.0620  100.6160 C   0  0  0  0  0  3  0  0  0  0  0  0
  146.8780  131.1310   99.9010 C   0  0  0  0  0  3  0  0  0  0  0  0
  147.2580  132.3280   99.2920 C   0  0  0  0  0  3  0  0  0  0  0  0
  146.9260  134.7580   98.7120 C   0  0  1  0  0  3  0  0  0  0  0  0
  148.2460  135.3270   99.2530 C   0  0  0  0  0  1  0  0  0  0  0  0
  146.9790  134.6300   97.2450 N   0  0  0  0  0  0  0  0  0  0  0  0
  148.2490  134.7780   96.5520 C   0  0  0  0  0  1  0  0  0  0  0  0
  145.7960  134.6340   96.5310 C   0  0  0  0  0  3  0  0  0  0  0  0
  145.2440  133.6530   96.0490 O   0  0  0  0  0  0  0  0  0  0  0  0
  1  2  1  0  0  0  0
  2  3  2  0  0  0  0
  4  3  1  0  0  0  0
  5  4  2  0  0  0  0
  6  1  2  0  0  0  0
  6  5  1  0  0  0  0
  7  8  1  1  0  0  0
  7  1  1  0  0  0  0
  9  7  1  0  0  0  0
 10  9  1  0  0  0  0
 11  9  1  0  0  0  0
 12 11  2  0  0  0  0
M  END
>  <MODEL>
9

>  <REMARK>
 VINA RESULT:      -4.8      1.659      2.607
  3 active torsions:
  status: ('A' for Active; 'I' for Inactive)
    1  A    between atoms: C_2  and  C_3 
    2  A    between atoms: C_2  and  N_9 
    3  A    between atoms: N_9  and  C_11 

>  <TORSDO>
F 3

$$$$
