../results/processed/lowest_conf/7XP5/docked/b4c.pdbqt
 OpenBabel07252416063D

 17 17  0  0  1  0  0  0  0  0999 V2000
  144.2670  133.2400  100.5370 N   0  0  0  0  0  0  0  0  0  0  0  0
  143.5960  132.4740  100.5050 H   0  0  0  0  0  0  0  0  0  0  0  0
  144.0800  134.0100  101.7840 C   0  0  2  0  0  3  0  0  0  0  0  0
  144.2800  133.0960  103.0010 C   0  0  0  0  0  1  0  0  0  0  0  0
  142.6600  134.5940  101.7540 C   0  0  0  0  0  2  0  0  0  0  0  0
  142.3420  135.2640  100.4440 C   0  0  0  0  0  0  0  0  0  0  0  0
  141.9250  134.7500   99.4210 O   0  0  0  0  0  0  0  0  0  0  0  0
  142.5590  136.5940  100.4960 O   0  0  0  0  0  0  0  0  0  0  0  0
  141.9990  136.8970  101.2410 H   0  0  0  0  0  0  0  0  0  0  0  0
  145.6290  132.7040  100.3720 C   0  0  1  0  0  3  0  0  0  0  0  0
  145.5680  131.1720  100.4170 C   0  0  0  0  0  1  0  0  0  0  0  0
  146.2830  133.1520   99.0750 C   0  0  0  0  0  0  0  0  0  0  0  0
  147.4270  132.5110   98.5730 C   0  0  0  0  0  3  0  0  0  0  0  0
  148.0220  132.9400   97.3850 C   0  0  0  0  0  3  0  0  0  0  0  0
  147.4820  134.0160   96.6850 C   0  0  0  0  0  3  0  0  0  0  0  0
  146.3480  134.6640   97.1700 C   0  0  0  0  0  3  0  0  0  0  0  0
  145.7520  134.2350   98.3580 C   0  0  0  0  0  3  0  0  0  0  0  0
  1  3  1  0  0  0  0
  2  1  1  0  0  0  0
  3  4  1  1  0  0  0
  5  3  1  0  0  0  0
  6  8  1  0  0  0  0
  6  5  1  0  0  0  0
  7  6  2  0  0  0  0
  8  9  1  0  0  0  0
 10 11  1  6  0  0  0
 10  1  1  0  0  0  0
 12 10  1  0  0  0  0
 13 12  1  0  0  0  0
 14 13  2  0  0  0  0
 15 16  2  0  0  0  0
 15 14  1  0  0  0  0
 16 17  1  0  0  0  0
 17 12  2  0  0  0  0
M  END
>  <MODEL>
1

>  <REMARK>
 VINA RESULT:      -6.6      0.000      0.000
  6 active torsions:
  status: ('A' for Active; 'I' for Inactive)
    1  A    between atoms: C_2  and  C_3 
    2  A    between atoms: C_2  and  N_7 
    3  A    between atoms: C_3  and  C_4 
    4  A    between atoms: C_4  and  O_6 
    5  A    between atoms: N_7  and  C_8 
    6  A    between atoms: C_8  and  C_10 

>  <TORSDO>
F 6

$$$$
../results/processed/lowest_conf/7XP5/docked/b4c.pdbqt
 OpenBabel07252416063D

 17 17  0  0  1  0  0  0  0  0999 V2000
  145.7540  134.5140  101.2400 N   0  0  0  0  0  0  0  0  0  0  0  0
  145.5860  135.4570  100.8920 H   0  0  0  0  0  0  0  0  0  0  0  0
  144.4960  133.7410  101.2040 C   0  0  2  0  0  3  0  0  0  0  0  0
  143.3590  134.6130  100.6550 C   0  0  0  0  0  1  0  0  0  0  0  0
  144.1990  133.2800  102.6390 C   0  0  0  0  0  2  0  0  0  0  0  0
  144.9090  134.1170  103.6700 C   0  0  0  0  0  0  0  0  0  0  0  0
  145.9570  133.8710  104.2420 O   0  0  0  0  0  0  0  0  0  0  0  0
  144.2480  135.2640  103.9260 O   0  0  0  0  0  0  0  0  0  0  0  0
  144.8230  135.9590  103.5430 H   0  0  0  0  0  0  0  0  0  0  0  0
  146.8490  133.8960  100.4720 C   0  0  1  0  0  3  0  0  0  0  0  0
  146.2920  132.6980   99.6930 C   0  0  0  0  0  1  0  0  0  0  0  0
  147.5120  134.8680   99.5090 C   0  0  0  0  0  0  0  0  0  0  0  0
  148.4400  135.8220   99.9570 C   0  0  0  0  0  3  0  0  0  0  0  0
  149.0330  136.7150   99.0630 C   0  0  0  0  0  3  0  0  0  0  0  0
  148.7030  136.6680   97.7100 C   0  0  0  0  0  3  0  0  0  0  0  0
  147.7830  135.7290   97.2500 C   0  0  0  0  0  3  0  0  0  0  0  0
  147.1900  134.8350   98.1440 C   0  0  0  0  0  3  0  0  0  0  0  0
  2  1  1  0  0  0  0
  3  4  1  1  0  0  0
  3  1  1  0  0  0  0
  3  5  1  0  0  0  0
  5  6  1  0  0  0  0
  6  8  1  0  0  0  0
  6  7  2  0  0  0  0
  9  8  1  0  0  0  0
 10 11  1  6  0  0  0
 10  1  1  0  0  0  0
 12 13  1  0  0  0  0
 12 10  1  0  0  0  0
 14 13  2  0  0  0  0
 15 14  1  0  0  0  0
 16 15  2  0  0  0  0
 16 17  1  0  0  0  0
 17 12  2  0  0  0  0
M  END
>  <MODEL>
2

>  <REMARK>
 VINA RESULT:      -6.4      2.679      3.179
  6 active torsions:
  status: ('A' for Active; 'I' for Inactive)
    1  A    between atoms: C_2  and  C_3 
    2  A    between atoms: C_2  and  N_7 
    3  A    between atoms: C_3  and  C_4 
    4  A    between atoms: C_4  and  O_6 
    5  A    between atoms: N_7  and  C_8 
    6  A    between atoms: C_8  and  C_10 

>  <TORSDO>
F 6

$$$$
../results/processed/lowest_conf/7XP5/docked/b4c.pdbqt
 OpenBabel07252416063D

 17 17  0  0  1  0  0  0  0  0999 V2000
  145.1080  133.7280  100.6140 N   0  0  0  0  0  0  0  0  0  0  0  0
  144.5290  133.3950   99.8450 H   0  0  0  0  0  0  0  0  0  0  0  0
  145.3840  132.6130  101.5440 C   0  0  2  0  0  3  0  0  0  0  0  0
  145.2640  131.2730  100.8080 C   0  0  0  0  0  1  0  0  0  0  0  0
  144.3680  132.7110  102.6910 C   0  0  0  0  0  2  0  0  0  0  0  0
  143.6070  134.0100  102.6770 C   0  0  0  0  0  0  0  0  0  0  0  0
  142.5490  134.2530  102.1240 O   0  0  0  0  0  0  0  0  0  0  0  0
  144.2340  134.9650  103.3940 O   0  0  0  0  0  0  0  0  0  0  0  0
  144.3430  134.5620  104.2810 H   0  0  0  0  0  0  0  0  0  0  0  0
  146.3230  134.3610  100.0740 C   0  0  1  0  0  3  0  0  0  0  0  0
  147.5050  134.0300  100.9940 C   0  0  0  0  0  1  0  0  0  0  0  0
  146.6380  133.9120   98.6560 C   0  0  0  0  0  0  0  0  0  0  0  0
  147.6960  133.0290   98.3860 C   0  0  0  0  0  3  0  0  0  0  0  0
  147.9790  132.6340   97.0770 C   0  0  0  0  0  3  0  0  0  0  0  0
  147.2090  133.1170   96.0220 C   0  0  0  0  0  3  0  0  0  0  0  0
  146.1570  133.9950   96.2720 C   0  0  0  0  0  3  0  0  0  0  0  0
  145.8730  134.3910   97.5810 C   0  0  0  0  0  3  0  0  0  0  0  0
  1  3  1  0  0  0  0
  2  1  1  0  0  0  0
  3  4  1  6  0  0  0
  3  5  1  0  0  0  0
  6  5  1  0  0  0  0
  6  8  1  0  0  0  0
  7  6  2  0  0  0  0
  8  9  1  0  0  0  0
 10  1  1  0  0  0  0
 10 11  1  1  0  0  0
 12 10  1  0  0  0  0
 13 12  1  0  0  0  0
 14 13  2  0  0  0  0
 15 16  2  0  0  0  0
 15 14  1  0  0  0  0
 16 17  1  0  0  0  0
 17 12  2  0  0  0  0
M  END
>  <MODEL>
3

>  <REMARK>
 VINA RESULT:      -6.3      1.599      2.181
  6 active torsions:
  status: ('A' for Active; 'I' for Inactive)
    1  A    between atoms: C_2  and  C_3 
    2  A    between atoms: C_2  and  N_7 
    3  A    between atoms: C_3  and  C_4 
    4  A    between atoms: C_4  and  O_6 
    5  A    between atoms: N_7  and  C_8 
    6  A    between atoms: C_8  and  C_10 

>  <TORSDO>
F 6

$$$$
../results/processed/lowest_conf/7XP5/docked/b4c.pdbqt
 OpenBabel07252416063D

 17 17  0  0  1  0  0  0  0  0999 V2000
  147.2460  135.3100   99.4540 N   0  0  0  0  0  0  0  0  0  0  0  0
  147.1980  136.1370  100.0470 H   0  0  0  0  0  0  0  0  0  0  0  0
  148.0820  135.5990   98.2690 C   0  0  2  0  0  3  0  0  0  0  0  0
  148.7010  136.9980   98.3920 C   0  0  0  0  0  1  0  0  0  0  0  0
  147.1750  135.4980   97.0330 C   0  0  0  0  0  2  0  0  0  0  0  0
  145.9260  134.7020   97.3000 C   0  0  0  0  0  0  0  0  0  0  0  0
  145.7700  133.4970   97.2050 O   0  0  0  0  0  0  0  0  0  0  0  0
  144.9050  135.4890   97.6990 O   0  0  0  0  0  0  0  0  0  0  0  0
  144.9390  136.2500   97.0820 H   0  0  0  0  0  0  0  0  0  0  0  0
  147.7250  134.1650  100.2480 C   0  0  1  0  0  3  0  0  0  0  0  0
  148.7820  134.6600  101.2440 C   0  0  0  0  0  1  0  0  0  0  0  0
  146.6040  133.4630  100.9980 C   0  0  0  0  0  0  0  0  0  0  0  0
  146.0160  134.0350  102.1380 C   0  0  0  0  0  3  0  0  0  0  0  0
  144.9950  133.3730  102.8220 C   0  0  0  0  0  3  0  0  0  0  0  0
  144.5500  132.1310  102.3770 C   0  0  0  0  0  3  0  0  0  0  0  0
  145.1240  131.5490  101.2490 C   0  0  0  0  0  3  0  0  0  0  0  0
  146.1450  132.2100  100.5640 C   0  0  0  0  0  3  0  0  0  0  0  0
  1  2  1  0  0  0  0
  1 10  1  0  0  0  0
  3  4  1  1  0  0  0
  3  1  1  0  0  0  0
  5  6  1  0  0  0  0
  5  3  1  0  0  0  0
  6  8  1  0  0  0  0
  7  6  2  0  0  0  0
  9  8  1  0  0  0  0
 10 12  1  0  0  0  0
 10 11  1  1  0  0  0
 12 13  1  0  0  0  0
 13 14  2  0  0  0  0
 15 14  1  0  0  0  0
 16 15  2  0  0  0  0
 17 12  2  0  0  0  0
 17 16  1  0  0  0  0
M  END
>  <MODEL>
4

>  <REMARK>
 VINA RESULT:      -6.3      2.507      4.998
  6 active torsions:
  status: ('A' for Active; 'I' for Inactive)
    1  A    between atoms: C_2  and  C_3 
    2  A    between atoms: C_2  and  N_7 
    3  A    between atoms: C_3  and  C_4 
    4  A    between atoms: C_4  and  O_6 
    5  A    between atoms: N_7  and  C_8 
    6  A    between atoms: C_8  and  C_10 

>  <TORSDO>
F 6

$$$$
../results/processed/lowest_conf/7XP5/docked/b4c.pdbqt
 OpenBabel07252416063D

 17 17  0  0  1  0  0  0  0  0999 V2000
  146.0770  134.1450   98.3510 N   0  0  0  0  0  0  0  0  0  0  0  0
  145.9030  134.9430   98.9600 H   0  0  0  0  0  0  0  0  0  0  0  0
  147.3060  134.3810   97.5650 C   0  0  2  0  0  3  0  0  0  0  0  0
  147.8450  135.7900   97.8430 C   0  0  0  0  0  1  0  0  0  0  0  0
  146.9430  134.2070   96.0830 C   0  0  0  0  0  2  0  0  0  0  0  0
  145.4950  134.5100   95.8060 C   0  0  0  0  0  0  0  0  0  0  0  0
  144.9290  135.5870   95.8710 O   0  0  0  0  0  0  0  0  0  0  0  0
  144.8130  133.4060   95.4370 O   0  0  0  0  0  0  0  0  0  0  0  0
  144.9460  133.3590   94.4670 H   0  0  0  0  0  0  0  0  0  0  0  0
  146.1200  132.9130   99.1580 C   0  0  1  0  0  3  0  0  0  0  0  0
  147.5740  132.6360   99.5610 C   0  0  0  0  0  1  0  0  0  0  0  0
  145.2510  132.9970  100.4030 C   0  0  0  0  0  0  0  0  0  0  0  0
  144.3430  134.0510  100.5910 C   0  0  0  0  0  3  0  0  0  0  0  0
  143.5590  134.1200  101.7440 C   0  0  0  0  0  3  0  0  0  0  0  0
  143.6740  133.1380  102.7240 C   0  0  0  0  0  3  0  0  0  0  0  0
  144.5720  132.0860  102.5540 C   0  0  0  0  0  3  0  0  0  0  0  0
  145.3570  132.0160  101.4010 C   0  0  0  0  0  3  0  0  0  0  0  0
  1  2  1  0  0  0  0
  1 10  1  0  0  0  0
  3  4  1  6  0  0  0
  3  1  1  0  0  0  0
  5  3  1  0  0  0  0
  6  7  2  0  0  0  0
  6  5  1  0  0  0  0
  8  6  1  0  0  0  0
  9  8  1  0  0  0  0
 10 11  1  1  0  0  0
 10 12  1  0  0  0  0
 12 13  2  0  0  0  0
 12 17  1  0  0  0  0
 13 14  1  0  0  0  0
 14 15  2  0  0  0  0
 16 15  1  0  0  0  0
 17 16  2  0  0  0  0
M  END
>  <MODEL>
5

>  <REMARK>
 VINA RESULT:      -6.1      2.244      5.179
  6 active torsions:
  status: ('A' for Active; 'I' for Inactive)
    1  A    between atoms: C_2  and  C_3 
    2  A    between atoms: C_2  and  N_7 
    3  A    between atoms: C_3  and  C_4 
    4  A    between atoms: C_4  and  O_6 
    5  A    between atoms: N_7  and  C_8 
    6  A    between atoms: C_8  and  C_10 

>  <TORSDO>
F 6

$$$$
../results/processed/lowest_conf/7XP5/docked/b4c.pdbqt
 OpenBabel07252416063D

 17 17  0  0  1  0  0  0  0  0999 V2000
  137.2730  144.0740   99.4620 N   0  0  0  0  0  0  0  0  0  0  0  0
  136.5260  144.7280   99.6910 H   0  0  0  0  0  0  0  0  0  0  0  0
  136.7690  142.6890   99.5660 C   0  0  2  0  0  3  0  0  0  0  0  0
  135.2910  142.6980   99.9790 C   0  0  0  0  0  1  0  0  0  0  0  0
  137.6330  141.9640  100.6070 C   0  0  0  0  0  2  0  0  0  0  0  0
  138.3000  142.9150  101.5650 C   0  0  0  0  0  0  0  0  0  0  0  0
  137.7880  143.5390  102.4790 O   0  0  0  0  0  0  0  0  0  0  0  0
  139.6210  143.0270  101.3230 O   0  0  0  0  0  0  0  0  0  0  0  0
  139.6780  143.7180  100.6300 H   0  0  0  0  0  0  0  0  0  0  0  0
  137.8220  144.4040   98.1350 C   0  0  1  0  0  3  0  0  0  0  0  0
  139.2790  143.9270   98.0690 C   0  0  0  0  0  1  0  0  0  0  0  0
  137.0280  143.7780   96.9990 C   0  0  0  0  0  0  0  0  0  0  0  0
  137.6150  142.8580   96.1160 C   0  0  0  0  0  3  0  0  0  0  0  0
  136.8750  142.3000   95.0720 C   0  0  0  0  0  3  0  0  0  0  0  0
  135.5400  142.6560   94.8960 C   0  0  0  0  0  3  0  0  0  0  0  0
  134.9430  143.5680   95.7630 C   0  0  0  0  0  3  0  0  0  0  0  0
  135.6820  144.1270   96.8080 C   0  0  0  0  0  3  0  0  0  0  0  0
  1  3  1  0  0  0  0
  1  2  1  0  0  0  0
  3  4  1  1  0  0  0
  3  5  1  0  0  0  0
  5  6  1  0  0  0  0
  6  7  2  0  0  0  0
  8  6  1  0  0  0  0
  9  8  1  0  0  0  0
 10 11  1  1  0  0  0
 10  1  1  0  0  0  0
 12 10  1  0  0  0  0
 13 12  2  0  0  0  0
 14 13  1  0  0  0  0
 15 14  2  0  0  0  0
 15 16  1  0  0  0  0
 16 17  2  0  0  0  0
 17 12  1  0  0  0  0
M  END
>  <MODEL>
6

>  <REMARK>
 VINA RESULT:      -6.0     11.501     12.828
  6 active torsions:
  status: ('A' for Active; 'I' for Inactive)
    1  A    between atoms: C_2  and  C_3 
    2  A    between atoms: C_2  and  N_7 
    3  A    between atoms: C_3  and  C_4 
    4  A    between atoms: C_4  and  O_6 
    5  A    between atoms: N_7  and  C_8 
    6  A    between atoms: C_8  and  C_10 

>  <TORSDO>
F 6

$$$$
../results/processed/lowest_conf/7XP5/docked/b4c.pdbqt
 OpenBabel07252416063D

 17 17  0  0  1  0  0  0  0  0999 V2000
  137.8420  144.7740   98.3960 N   0  0  0  0  0  0  0  0  0  0  0  0
  137.5460  145.2330   99.2560 H   0  0  0  0  0  0  0  0  0  0  0  0
  139.3160  144.6790   98.3680 C   0  0  2  0  0  3  0  0  0  0  0  0
  139.8080  144.5690   96.9180 C   0  0  0  0  0  1  0  0  0  0  0  0
  139.7120  143.4410   99.1850 C   0  0  0  0  0  2  0  0  0  0  0  0
  140.3250  143.8000  100.5130 C   0  0  0  0  0  0  0  0  0  0  0  0
  140.3470  143.1330  101.5330 O   0  0  0  0  0  0  0  0  0  0  0  0
  140.9100  145.0150  100.4820 O   0  0  0  0  0  0  0  0  0  0  0  0
  140.6880  145.3620   99.5930 H   0  0  0  0  0  0  0  0  0  0  0  0
  137.1650  143.4710   98.2780 C   0  0  1  0  0  3  0  0  0  0  0  0
  136.2060  143.3020   99.4630 C   0  0  0  0  0  1  0  0  0  0  0  0
  136.3970  143.3250   96.9740 C   0  0  0  0  0  0  0  0  0  0  0  0
  135.1700  143.9770   96.7710 C   0  0  0  0  0  3  0  0  0  0  0  0
  134.4710  143.8250   95.5720 C   0  0  0  0  0  3  0  0  0  0  0  0
  134.9890  143.0190   94.5610 C   0  0  0  0  0  3  0  0  0  0  0  0
  136.2050  142.3640   94.7470 C   0  0  0  0  0  3  0  0  0  0  0  0
  136.9040  142.5150   95.9460 C   0  0  0  0  0  3  0  0  0  0  0  0
  1  2  1  0  0  0  0
  3  4  1  6  0  0  0
  3  1  1  0  0  0  0
  3  5  1  0  0  0  0
  5  6  1  0  0  0  0
  6  7  2  0  0  0  0
  8  6  1  0  0  0  0
  9  8  1  0  0  0  0
 10  1  1  0  0  0  0
 10 11  1  1  0  0  0
 12 10  1  0  0  0  0
 13 12  1  0  0  0  0
 14 13  2  0  0  0  0
 15 16  2  0  0  0  0
 15 14  1  0  0  0  0
 16 17  1  0  0  0  0
 17 12  2  0  0  0  0
M  END
>  <MODEL>
7

>  <REMARK>
 VINA RESULT:      -5.9     11.463     13.224
  6 active torsions:
  status: ('A' for Active; 'I' for Inactive)
    1  A    between atoms: C_2  and  C_3 
    2  A    between atoms: C_2  and  N_7 
    3  A    between atoms: C_3  and  C_4 
    4  A    between atoms: C_4  and  O_6 
    5  A    between atoms: N_7  and  C_8 
    6  A    between atoms: C_8  and  C_10 

>  <TORSDO>
F 6

$$$$
../results/processed/lowest_conf/7XP5/docked/b4c.pdbqt
 OpenBabel07252416063D

 17 17  0  0  1  0  0  0  0  0999 V2000
  138.4480  142.8910   98.9060 N   0  0  0  0  0  0  0  0  0  0  0  0
  138.8360  143.3380   99.7350 H   0  0  0  0  0  0  0  0  0  0  0  0
  137.1650  142.2410   99.2490 C   0  0  2  0  0  3  0  0  0  0  0  0
  136.0450  143.2880   99.3070 C   0  0  0  0  0  1  0  0  0  0  0  0
  137.3510  141.5490  100.6070 C   0  0  0  0  0  2  0  0  0  0  0  0
  137.7210  142.5160  101.7000 C   0  0  0  0  0  0  0  0  0  0  0  0
  138.5680  143.3920  101.6700 O   0  0  0  0  0  0  0  0  0  0  0  0
  136.9720  142.3320  102.8060 O   0  0  0  0  0  0  0  0  0  0  0  0
  137.6150  142.0260  103.4790 H   0  0  0  0  0  0  0  0  0  0  0  0
  138.3360  143.8830   97.8220 C   0  0  1  0  0  3  0  0  0  0  0  0
  139.4310  144.9420   98.0050 C   0  0  0  0  0  1  0  0  0  0  0  0
  138.4530  143.2580   96.4410 C   0  0  0  0  0  0  0  0  0  0  0  0
  137.3150  142.8890   95.7060 C   0  0  0  0  0  3  0  0  0  0  0  0
  137.4400  142.3060   94.4440 C   0  0  0  0  0  3  0  0  0  0  0  0
  138.7030  142.0830   93.9010 C   0  0  0  0  0  3  0  0  0  0  0  0
  139.8420  142.4420   94.6180 C   0  0  0  0  0  3  0  0  0  0  0  0
  139.7190  143.0240   95.8810 C   0  0  0  0  0  3  0  0  0  0  0  0
  1  3  1  0  0  0  0
  1  2  1  0  0  0  0
  3  4  1  1  0  0  0
  3  5  1  0  0  0  0
  5  6  1  0  0  0  0
  6  8  1  0  0  0  0
  7  6  2  0  0  0  0
  8  9  1  0  0  0  0
 10 11  1  1  0  0  0
 10  1  1  0  0  0  0
 12 10  1  0  0  0  0
 13 12  2  0  0  0  0
 14 13  1  0  0  0  0
 15 14  2  0  0  0  0
 15 16  1  0  0  0  0
 16 17  2  0  0  0  0
 17 12  1  0  0  0  0
M  END
>  <MODEL>
8

>  <REMARK>
 VINA RESULT:      -5.9     11.018     11.957
  6 active torsions:
  status: ('A' for Active; 'I' for Inactive)
    1  A    between atoms: C_2  and  C_3 
    2  A    between atoms: C_2  and  N_7 
    3  A    between atoms: C_3  and  C_4 
    4  A    between atoms: C_4  and  O_6 
    5  A    between atoms: N_7  and  C_8 
    6  A    between atoms: C_8  and  C_10 

>  <TORSDO>
F 6

$$$$
../results/processed/lowest_conf/7XP5/docked/b4c.pdbqt
 OpenBabel07252416063D

 17 17  0  0  1  0  0  0  0  0999 V2000
  138.6590  143.1250   99.3410 N   0  0  0  0  0  0  0  0  0  0  0  0
  139.4720  143.4190   99.8790 H   0  0  0  0  0  0  0  0  0  0  0  0
  137.5090  142.9290  100.2470 C   0  0  2  0  0  3  0  0  0  0  0  0
  137.9720  143.0100  101.7080 C   0  0  0  0  0  1  0  0  0  0  0  0
  136.9040  141.5540   99.9310 C   0  0  0  0  0  2  0  0  0  0  0  0
  135.4610  141.6430   99.5110 C   0  0  0  0  0  0  0  0  0  0  0  0
  134.5940  142.3750   99.9580 O   0  0  0  0  0  0  0  0  0  0  0  0
  135.1760  140.7870   98.5090 O   0  0  0  0  0  0  0  0  0  0  0  0
  135.9490  140.1840   98.4860 H   0  0  0  0  0  0  0  0  0  0  0  0
  138.4040  144.1000   98.2660 C   0  0  1  0  0  3  0  0  0  0  0  0
  139.6190  145.0290   98.1420 C   0  0  0  0  0  1  0  0  0  0  0  0
  138.1280  143.4380   96.9260 C   0  0  0  0  0  0  0  0  0  0  0  0
  139.1740  142.9960   96.0990 C   0  0  0  0  0  3  0  0  0  0  0  0
  138.9050  142.3990   94.8660 C   0  0  0  0  0  3  0  0  0  0  0  0
  137.5870  142.2370   94.4430 C   0  0  0  0  0  3  0  0  0  0  0  0
  136.5380  142.6710   95.2510 C   0  0  0  0  0  3  0  0  0  0  0  0
  136.8070  143.2690   96.4840 C   0  0  0  0  0  3  0  0  0  0  0  0
  1  2  1  0  0  0  0
  1  3  1  0  0  0  0
  3  4  1  1  0  0  0
  5  3  1  0  0  0  0
  6  5  1  0  0  0  0
  6  7  2  0  0  0  0
  8  6  1  0  0  0  0
  9  8  1  0  0  0  0
 10 11  1  6  0  0  0
 10  1  1  0  0  0  0
 12 10  1  0  0  0  0
 13 12  2  0  0  0  0
 14 13  1  0  0  0  0
 15 14  2  0  0  0  0
 15 16  1  0  0  0  0
 16 17  2  0  0  0  0
 17 12  1  0  0  0  0
M  END
>  <MODEL>
9

>  <REMARK>
 VINA RESULT:      -5.7     11.375     12.155
  6 active torsions:
  status: ('A' for Active; 'I' for Inactive)
    1  A    between atoms: C_2  and  C_3 
    2  A    between atoms: C_2  and  N_7 
    3  A    between atoms: C_3  and  C_4 
    4  A    between atoms: C_4  and  O_6 
    5  A    between atoms: N_7  and  C_8 
    6  A    between atoms: C_8  and  C_10 

>  <TORSDO>
F 6

$$$$
