MODEL 1
REMARK VINA RESULT:      -6.4      0.000      0.000
REMARK  2 active torsions:
REMARK  status: ('A' for Active; 'I' for Inactive)
REMARK    1  A    between atoms: C_4  and  C_9 
REMARK    2  A    between atoms: C_9  and  O_11 
ROOT
ATOM      1  O   UNL d   1     145.505 132.467  99.493  0.00  0.00    -0.284 OA
ATOM      2  C   UNL d   1     144.781 132.866 100.393  0.00  0.00     0.222 A 
ATOM      3  C   UNL d   1     143.827 133.971 100.161  0.00  0.00     0.077 A 
ATOM      4  C   UNL d   1     143.035 134.401 101.156  0.00  0.00     0.041 A 
ATOM      5  C   UNL d   1     143.082 133.810 102.480  0.00  0.00     0.022 A 
ATOM      6  C   UNL d   1     143.904 132.806 102.804  0.00  0.00     0.060 A 
ATOM      7  C   UNL d   1     144.824 132.247 101.790  0.00  0.00     0.221 A 
ATOM      8  O   UNL d   1     145.581 131.330 102.068  0.00  0.00    -0.284 OA
ENDROOT
BRANCH   4   9
ATOM      9  C   UNL d   1     142.114 135.517 100.814  0.00  0.00     0.176 C 
ATOM     10  O   UNL d   1     140.898 135.468 100.792  0.00  0.00    -0.646 OA
BRANCH   9  11
ATOM     11  O   UNL d   1     142.767 136.654 100.514  0.00  0.00    -0.773 OA
ATOM     12  H   UNL d   1     142.245 137.352 100.964  0.00  0.00     0.167 HD
ENDBRANCH   9  11
ENDBRANCH   4   9
TORSDOF 2
ENDMDL
MODEL 2
REMARK VINA RESULT:      -5.6      2.703      3.589
REMARK  2 active torsions:
REMARK  status: ('A' for Active; 'I' for Inactive)
REMARK    1  A    between atoms: C_4  and  C_9 
REMARK    2  A    between atoms: C_9  and  O_11 
ROOT
ATOM      1  O   UNL d   1     145.368 130.620 100.243  0.00  0.00    -0.284 OA
ATOM      2  C   UNL d   1     145.833 131.677 100.643  0.00  0.00     0.222 A 
ATOM      3  C   UNL d   1     145.211 132.396 101.774  0.00  0.00     0.077 A 
ATOM      4  C   UNL d   1     145.729 133.556 102.206  0.00  0.00     0.041 A 
ATOM      5  C   UNL d   1     146.904 134.144 101.590  0.00  0.00     0.022 A 
ATOM      6  C   UNL d   1     147.550 133.583 100.562  0.00  0.00     0.060 A 
ATOM      7  C   UNL d   1     147.072 132.302  99.999  0.00  0.00     0.221 A 
ATOM      8  O   UNL d   1     147.648 131.775  99.061  0.00  0.00    -0.284 OA
ENDROOT
BRANCH   4   9
ATOM      9  C   UNL d   1     145.025 134.195 103.349  0.00  0.00     0.176 C 
ATOM     10  O   UNL d   1     143.864 134.562 103.367  0.00  0.00    -0.646 OA
BRANCH   9  11
ATOM     11  O   UNL d   1     145.815 134.346 104.425  0.00  0.00    -0.773 OA
ATOM     12  H   UNL d   1     145.184 134.460 105.168  0.00  0.00     0.167 HD
ENDBRANCH   9  11
ENDBRANCH   4   9
TORSDOF 2
ENDMDL
MODEL 3
REMARK VINA RESULT:      -5.4      1.677      2.071
REMARK  2 active torsions:
REMARK  status: ('A' for Active; 'I' for Inactive)
REMARK    1  A    between atoms: C_4  and  C_9 
REMARK    2  A    between atoms: C_9  and  O_11 
ROOT
ATOM      1  O   UNL d   1     146.307 133.059  98.555  0.00  0.00    -0.284 OA
ATOM      2  C   UNL d   1     145.809 132.801  99.641  0.00  0.00     0.222 A 
ATOM      3  C   UNL d   1     144.862 133.739 100.280  0.00  0.00     0.077 A 
ATOM      4  C   UNL d   1     144.320 133.446 101.472  0.00  0.00     0.041 A 
ATOM      5  C   UNL d   1     144.636 132.216 102.174  0.00  0.00     0.022 A 
ATOM      6  C   UNL d   1     145.477 131.294 101.692  0.00  0.00     0.060 A 
ATOM      7  C   UNL d   1     146.136 131.506 100.385  0.00  0.00     0.221 A 
ATOM      8  O   UNL d   1     146.907 130.675  99.930  0.00  0.00    -0.284 OA
ENDROOT
BRANCH   4   9
ATOM      9  C   UNL d   1     143.382 134.459 102.024  0.00  0.00     0.176 C 
ATOM     10  O   UNL d   1     142.293 134.758 101.569  0.00  0.00    -0.646 OA
BRANCH   9  11
ATOM     11  O   UNL d   1     143.857 135.056 103.131  0.00  0.00    -0.773 OA
ATOM     12  H   UNL d   1     143.923 134.326 103.784  0.00  0.00     0.167 HD
ENDBRANCH   9  11
ENDBRANCH   4   9
TORSDOF 2
ENDMDL
MODEL 4
REMARK VINA RESULT:      -5.4      2.691      3.922
REMARK  2 active torsions:
REMARK  status: ('A' for Active; 'I' for Inactive)
REMARK    1  A    between atoms: C_4  and  C_9 
REMARK    2  A    between atoms: C_9  and  O_11 
ROOT
ATOM      1  O   UNL d   1     145.348 133.824  98.129  0.00  0.00    -0.284 OA
ATOM      2  C   UNL d   1     145.907 134.032  99.196  0.00  0.00     0.222 A 
ATOM      3  C   UNL d   1     145.191 133.834 100.474  0.00  0.00     0.077 A 
ATOM      4  C   UNL d   1     145.813 134.065 101.640  0.00  0.00     0.041 A 
ATOM      5  C   UNL d   1     147.193 134.511 101.696  0.00  0.00     0.022 A 
ATOM      6  C   UNL d   1     147.938 134.722 100.605  0.00  0.00     0.060 A 
ATOM      7  C   UNL d   1     147.361 134.501  99.261  0.00  0.00     0.221 A 
ATOM      8  O   UNL d   1     148.026 134.688  98.255  0.00  0.00    -0.284 OA
ENDROOT
BRANCH   4   9
ATOM      9  C   UNL d   1     145.000 133.836 102.864  0.00  0.00     0.176 C 
ATOM     10  O   UNL d   1     144.943 132.806 103.510  0.00  0.00    -0.646 OA
BRANCH   9  11
ATOM     11  O   UNL d   1     144.290 134.919 103.224  0.00  0.00    -0.773 OA
ATOM     12  H   UNL d   1     144.972 135.600 103.406  0.00  0.00     0.167 HD
ENDBRANCH   9  11
ENDBRANCH   4   9
TORSDOF 2
ENDMDL
MODEL 5
REMARK VINA RESULT:      -5.3      3.691      4.741
REMARK  2 active torsions:
REMARK  status: ('A' for Active; 'I' for Inactive)
REMARK    1  A    between atoms: C_4  and  C_9 
REMARK    2  A    between atoms: C_9  and  O_11 
ROOT
ATOM      1  O   UNL d   1     147.174 133.826  97.364  0.00  0.00    -0.284 OA
ATOM      2  C   UNL d   1     147.093 133.796  98.583  0.00  0.00     0.222 A 
ATOM      3  C   UNL d   1     146.404 132.681  99.267  0.00  0.00     0.077 A 
ATOM      4  C   UNL d   1     146.320 132.657 100.606  0.00  0.00     0.041 A 
ATOM      5  C   UNL d   1     146.893 133.708 101.427  0.00  0.00     0.022 A 
ATOM      6  C   UNL d   1     147.539 134.763 100.918  0.00  0.00     0.060 A 
ATOM      7  C   UNL d   1     147.696 134.899  99.454  0.00  0.00     0.221 A 
ATOM      8  O   UNL d   1     148.282 135.855  98.972  0.00  0.00    -0.284 OA
ENDROOT
BRANCH   4   9
ATOM      9  C   UNL d   1     145.606 131.491 101.190  0.00  0.00     0.176 C 
ATOM     10  O   UNL d   1     145.329 131.329 102.364  0.00  0.00    -0.646 OA
BRANCH   9  11
ATOM     11  O   UNL d   1     145.269 130.575 100.266  0.00  0.00    -0.773 OA
ATOM     12  H   UNL d   1     144.675 131.062  99.656  0.00  0.00     0.167 HD
ENDBRANCH   9  11
ENDBRANCH   4   9
TORSDOF 2
ENDMDL
MODEL 6
REMARK VINA RESULT:      -5.3     10.472     11.664
REMARK  2 active torsions:
REMARK  status: ('A' for Active; 'I' for Inactive)
REMARK    1  A    between atoms: C_4  and  C_9 
REMARK    2  A    between atoms: C_9  and  O_11 
ROOT
ATOM      1  O   UNL d   1     137.424 143.645  97.015  0.00  0.00    -0.284 OA
ATOM      2  C   UNL d   1     137.566 143.453  98.213  0.00  0.00     0.222 A 
ATOM      3  C   UNL d   1     138.868 143.693  98.869  0.00  0.00     0.077 A 
ATOM      4  C   UNL d   1     139.013 143.479 100.185  0.00  0.00     0.041 A 
ATOM      5  C   UNL d   1     137.914 143.010 101.009  0.00  0.00     0.022 A 
ATOM      6  C   UNL d   1     136.692 142.760 100.525  0.00  0.00     0.060 A 
ATOM      7  C   UNL d   1     136.411 142.960  99.087  0.00  0.00     0.221 A 
ATOM      8  O   UNL d   1     135.302 142.737  98.628  0.00  0.00    -0.284 OA
ENDROOT
BRANCH   4   9
ATOM      9  C   UNL d   1     140.365 143.751 100.741  0.00  0.00     0.176 C 
ATOM     10  O   UNL d   1     141.005 143.019 101.474  0.00  0.00    -0.646 OA
BRANCH   9  11
ATOM     11  O   UNL d   1     140.856 144.940 100.350  0.00  0.00    -0.773 OA
ATOM     12  H   UNL d   1     140.370 145.590 100.902  0.00  0.00     0.167 HD
ENDBRANCH   9  11
ENDBRANCH   4   9
TORSDOF 2
ENDMDL
MODEL 7
REMARK VINA RESULT:      -5.3     10.855     11.394
REMARK  2 active torsions:
REMARK  status: ('A' for Active; 'I' for Inactive)
REMARK    1  A    between atoms: C_4  and  C_9 
REMARK    2  A    between atoms: C_9  and  O_11 
ROOT
ATOM      1  O   UNL d   1     138.079 143.232 102.705  0.00  0.00    -0.284 OA
ATOM      2  C   UNL d   1     137.911 143.011 101.515  0.00  0.00     0.222 A 
ATOM      3  C   UNL d   1     136.640 142.435 101.026  0.00  0.00     0.077 A 
ATOM      4  C   UNL d   1     136.465 142.196  99.718  0.00  0.00     0.041 A 
ATOM      5  C   UNL d   1     137.498 142.488  98.742  0.00  0.00     0.022 A 
ATOM      6  C   UNL d   1     138.686 143.009  99.069  0.00  0.00     0.060 A 
ATOM      7  C   UNL d   1     138.996 143.316 100.482  0.00  0.00     0.221 A 
ATOM      8  O   UNL d   1     140.074 143.793 100.798  0.00  0.00    -0.284 OA
ENDROOT
BRANCH   4   9
ATOM      9  C   UNL d   1     135.150 141.616  99.336  0.00  0.00     0.176 C 
ATOM     10  O   UNL d   1     134.060 141.958  99.757  0.00  0.00    -0.646 OA
BRANCH   9  11
ATOM     11  O   UNL d   1     135.264 140.624  98.436  0.00  0.00    -0.773 OA
ATOM     12  H   UNL d   1     134.415 140.138  98.510  0.00  0.00     0.167 HD
ENDBRANCH   9  11
ENDBRANCH   4   9
TORSDOF 2
ENDMDL
MODEL 8
REMARK VINA RESULT:      -5.1     10.684     11.664
REMARK  2 active torsions:
REMARK  status: ('A' for Active; 'I' for Inactive)
REMARK    1  A    between atoms: C_4  and  C_9 
REMARK    2  A    between atoms: C_9  and  O_11 
ROOT
ATOM      1  O   UNL d   1     139.613 144.219  98.419  0.00  0.00    -0.284 OA
ATOM      2  C   UNL d   1     138.797 143.775  99.213  0.00  0.00     0.222 A 
ATOM      3  C   UNL d   1     137.377 143.623  98.833  0.00  0.00     0.077 A 
ATOM      4  C   UNL d   1     136.489 143.134  99.712  0.00  0.00     0.041 A 
ATOM      5  C   UNL d   1     136.879 142.739 101.053  0.00  0.00     0.022 A 
ATOM      6  C   UNL d   1     138.134 142.831 101.506  0.00  0.00     0.060 A 
ATOM      7  C   UNL d   1     139.202 143.356 100.627  0.00  0.00     0.221 A 
ATOM      8  O   UNL d   1     140.352 143.447 101.025  0.00  0.00    -0.284 OA
ENDROOT
BRANCH   4   9
ATOM      9  C   UNL d   1     135.089 143.025  99.225  0.00  0.00     0.176 C 
ATOM     10  O   UNL d   1     134.293 142.147  99.507  0.00  0.00    -0.646 OA
BRANCH   9  11
ATOM     11  O   UNL d   1     134.747 144.029  98.400  0.00  0.00    -0.773 OA
ATOM     12  H   UNL d   1     135.608 144.396  98.105  0.00  0.00     0.167 HD
ENDBRANCH   9  11
ENDBRANCH   4   9
TORSDOF 2
ENDMDL
MODEL 9
REMARK VINA RESULT:      -5.0     10.603     11.698
REMARK  2 active torsions:
REMARK  status: ('A' for Active; 'I' for Inactive)
REMARK    1  A    between atoms: C_4  and  C_9 
REMARK    2  A    between atoms: C_9  and  O_11 
ROOT
ATOM      1  O   UNL d   1     135.806 142.098  99.868  0.00  0.00    -0.284 OA
ATOM      2  C   UNL d   1     136.811 142.586  99.372  0.00  0.00     0.222 A 
ATOM      3  C   UNL d   1     137.977 142.930 100.213  0.00  0.00     0.077 A 
ATOM      4  C   UNL d   1     139.076 143.465  99.659  0.00  0.00     0.041 A 
ATOM      5  C   UNL d   1     139.165 143.725  98.234  0.00  0.00     0.022 A 
ATOM      6  C   UNL d   1     138.173 143.455  97.378  0.00  0.00     0.060 A 
ATOM      7  C   UNL d   1     136.911 142.862  97.871  0.00  0.00     0.221 A 
ATOM      8  O   UNL d   1     135.996 142.608  97.105  0.00  0.00    -0.284 OA
ENDROOT
BRANCH   4   9
ATOM      9  C   UNL d   1     140.189 143.773 100.595  0.00  0.00     0.176 C 
ATOM     10  O   UNL d   1     140.536 143.102 101.550  0.00  0.00    -0.646 OA
BRANCH   9  11
ATOM     11  O   UNL d   1     140.821 144.919 100.289  0.00  0.00    -0.773 OA
ATOM     12  H   UNL d   1     141.773 144.685 100.338  0.00  0.00     0.167 HD
ENDBRANCH   9  11
ENDBRANCH   4   9
TORSDOF 2
ENDMDL
