../results/processed/lowest_conf/7XP5/docked/b5.pdbqt
 OpenBabel07252416053D

 12 12  0  0  0  0  0  0  0  0999 V2000
  145.5050  132.4670   99.4930 O   0  0  0  0  0  0  0  0  0  0  0  0
  144.7810  132.8660  100.3930 C   0  0  0  0  0  0  0  0  0  0  0  0
  143.8270  133.9710  100.1610 C   0  0  0  0  0  3  0  0  0  0  0  0
  143.0350  134.4010  101.1560 C   0  0  0  0  0  0  0  0  0  0  0  0
  143.0820  133.8100  102.4800 C   0  0  0  0  0  3  0  0  0  0  0  0
  143.9040  132.8060  102.8040 C   0  0  0  0  0  3  0  0  0  0  0  0
  144.8240  132.2470  101.7900 C   0  0  0  0  0  0  0  0  0  0  0  0
  145.5810  131.3300  102.0680 O   0  0  0  0  0  0  0  0  0  0  0  0
  142.1140  135.5170  100.8140 C   0  0  0  0  0  0  0  0  0  0  0  0
  140.8980  135.4680  100.7920 O   0  0  0  0  0  0  0  0  0  0  0  0
  142.7670  136.6540  100.5140 O   0  0  0  0  0  0  0  0  0  0  0  0
  142.2450  137.3520  100.9640 H   0  0  0  0  0  0  0  0  0  0  0  0
  1  2  2  0  0  0  0
  2  7  1  0  0  0  0
  3  2  1  0  0  0  0
  3  4  2  0  0  0  0
  4  5  1  0  0  0  0
  5  6  2  0  0  0  0
  7  8  2  0  0  0  0
  7  6  1  0  0  0  0
  9  4  1  0  0  0  0
 10  9  2  0  0  0  0
 11  9  1  0  0  0  0
 11 12  1  0  0  0  0
M  END
>  <MODEL>
1

>  <REMARK>
 VINA RESULT:      -6.4      0.000      0.000
  2 active torsions:
  status: ('A' for Active; 'I' for Inactive)
    1  A    between atoms: C_4  and  C_9 
    2  A    between atoms: C_9  and  O_11 

>  <TORSDO>
F 2

$$$$
../results/processed/lowest_conf/7XP5/docked/b5.pdbqt
 OpenBabel07252416053D

 12 12  0  0  0  0  0  0  0  0999 V2000
  145.3680  130.6200  100.2430 O   0  0  0  0  0  0  0  0  0  0  0  0
  145.8330  131.6770  100.6430 C   0  0  0  0  0  0  0  0  0  0  0  0
  145.2110  132.3960  101.7740 C   0  0  0  0  0  3  0  0  0  0  0  0
  145.7290  133.5560  102.2060 C   0  0  0  0  0  0  0  0  0  0  0  0
  146.9040  134.1440  101.5900 C   0  0  0  0  0  3  0  0  0  0  0  0
  147.5500  133.5830  100.5620 C   0  0  0  0  0  3  0  0  0  0  0  0
  147.0720  132.3020   99.9990 C   0  0  0  0  0  0  0  0  0  0  0  0
  147.6480  131.7750   99.0610 O   0  0  0  0  0  0  0  0  0  0  0  0
  145.0250  134.1950  103.3490 C   0  0  0  0  0  0  0  0  0  0  0  0
  143.8640  134.5620  103.3670 O   0  0  0  0  0  0  0  0  0  0  0  0
  145.8150  134.3460  104.4250 O   0  0  0  0  0  0  0  0  0  0  0  0
  145.1840  134.4600  105.1680 H   0  0  0  0  0  0  0  0  0  0  0  0
  1  2  2  0  0  0  0
  2  3  1  0  0  0  0
  3  4  2  0  0  0  0
  4  9  1  0  0  0  0
  5  4  1  0  0  0  0
  6  5  2  0  0  0  0
  7  6  1  0  0  0  0
  7  2  1  0  0  0  0
  8  7  2  0  0  0  0
  9 10  2  0  0  0  0
  9 11  1  0  0  0  0
 11 12  1  0  0  0  0
M  END
>  <MODEL>
2

>  <REMARK>
 VINA RESULT:      -5.6      2.703      3.589
  2 active torsions:
  status: ('A' for Active; 'I' for Inactive)
    1  A    between atoms: C_4  and  C_9 
    2  A    between atoms: C_9  and  O_11 

>  <TORSDO>
F 2

$$$$
../results/processed/lowest_conf/7XP5/docked/b5.pdbqt
 OpenBabel07252416053D

 12 12  0  0  0  0  0  0  0  0999 V2000
  146.3070  133.0590   98.5550 O   0  0  0  0  0  0  0  0  0  0  0  0
  145.8090  132.8010   99.6410 C   0  0  0  0  0  0  0  0  0  0  0  0
  144.8620  133.7390  100.2800 C   0  0  0  0  0  3  0  0  0  0  0  0
  144.3200  133.4460  101.4720 C   0  0  0  0  0  0  0  0  0  0  0  0
  144.6360  132.2160  102.1740 C   0  0  0  0  0  3  0  0  0  0  0  0
  145.4770  131.2940  101.6920 C   0  0  0  0  0  3  0  0  0  0  0  0
  146.1360  131.5060  100.3850 C   0  0  0  0  0  0  0  0  0  0  0  0
  146.9070  130.6750   99.9300 O   0  0  0  0  0  0  0  0  0  0  0  0
  143.3820  134.4590  102.0240 C   0  0  0  0  0  0  0  0  0  0  0  0
  142.2930  134.7580  101.5690 O   0  0  0  0  0  0  0  0  0  0  0  0
  143.8570  135.0560  103.1310 O   0  0  0  0  0  0  0  0  0  0  0  0
  143.9230  134.3260  103.7840 H   0  0  0  0  0  0  0  0  0  0  0  0
  1  2  2  0  0  0  0
  2  3  1  0  0  0  0
  2  7  1  0  0  0  0
  3  4  2  0  0  0  0
  4  9  1  0  0  0  0
  4  5  1  0  0  0  0
  6  5  2  0  0  0  0
  7  6  1  0  0  0  0
  8  7  2  0  0  0  0
  9 11  1  0  0  0  0
 10  9  2  0  0  0  0
 11 12  1  0  0  0  0
M  END
>  <MODEL>
3

>  <REMARK>
 VINA RESULT:      -5.4      1.677      2.071
  2 active torsions:
  status: ('A' for Active; 'I' for Inactive)
    1  A    between atoms: C_4  and  C_9 
    2  A    between atoms: C_9  and  O_11 

>  <TORSDO>
F 2

$$$$
../results/processed/lowest_conf/7XP5/docked/b5.pdbqt
 OpenBabel07252416053D

 12 12  0  0  0  0  0  0  0  0999 V2000
  145.3480  133.8240   98.1290 O   0  0  0  0  0  0  0  0  0  0  0  0
  145.9070  134.0320   99.1960 C   0  0  0  0  0  0  0  0  0  0  0  0
  145.1910  133.8340  100.4740 C   0  0  0  0  0  3  0  0  0  0  0  0
  145.8130  134.0650  101.6400 C   0  0  0  0  0  0  0  0  0  0  0  0
  147.1930  134.5110  101.6960 C   0  0  0  0  0  3  0  0  0  0  0  0
  147.9380  134.7220  100.6050 C   0  0  0  0  0  3  0  0  0  0  0  0
  147.3610  134.5010   99.2610 C   0  0  0  0  0  0  0  0  0  0  0  0
  148.0260  134.6880   98.2550 O   0  0  0  0  0  0  0  0  0  0  0  0
  145.0000  133.8360  102.8640 C   0  0  0  0  0  0  0  0  0  0  0  0
  144.9430  132.8060  103.5100 O   0  0  0  0  0  0  0  0  0  0  0  0
  144.2900  134.9190  103.2240 O   0  0  0  0  0  0  0  0  0  0  0  0
  144.9720  135.6000  103.4060 H   0  0  0  0  0  0  0  0  0  0  0  0
  1  2  2  0  0  0  0
  2  7  1  0  0  0  0
  2  3  1  0  0  0  0
  3  4  2  0  0  0  0
  4  5  1  0  0  0  0
  4  9  1  0  0  0  0
  6  5  2  0  0  0  0
  7  6  1  0  0  0  0
  8  7  2  0  0  0  0
  9 11  1  0  0  0  0
  9 10  2  0  0  0  0
 11 12  1  0  0  0  0
M  END
>  <MODEL>
4

>  <REMARK>
 VINA RESULT:      -5.4      2.691      3.922
  2 active torsions:
  status: ('A' for Active; 'I' for Inactive)
    1  A    between atoms: C_4  and  C_9 
    2  A    between atoms: C_9  and  O_11 

>  <TORSDO>
F 2

$$$$
../results/processed/lowest_conf/7XP5/docked/b5.pdbqt
 OpenBabel07252416053D

 12 12  0  0  0  0  0  0  0  0999 V2000
  147.1740  133.8260   97.3640 O   0  0  0  0  0  0  0  0  0  0  0  0
  147.0930  133.7960   98.5830 C   0  0  0  0  0  0  0  0  0  0  0  0
  146.4040  132.6810   99.2670 C   0  0  0  0  0  3  0  0  0  0  0  0
  146.3200  132.6570  100.6060 C   0  0  0  0  0  0  0  0  0  0  0  0
  146.8930  133.7080  101.4270 C   0  0  0  0  0  3  0  0  0  0  0  0
  147.5390  134.7630  100.9180 C   0  0  0  0  0  3  0  0  0  0  0  0
  147.6960  134.8990   99.4540 C   0  0  0  0  0  0  0  0  0  0  0  0
  148.2820  135.8550   98.9720 O   0  0  0  0  0  0  0  0  0  0  0  0
  145.6060  131.4910  101.1900 C   0  0  0  0  0  0  0  0  0  0  0  0
  145.3290  131.3290  102.3640 O   0  0  0  0  0  0  0  0  0  0  0  0
  145.2690  130.5750  100.2660 O   0  0  0  0  0  0  0  0  0  0  0  0
  144.6750  131.0620   99.6560 H   0  0  0  0  0  0  0  0  0  0  0  0
  1  2  2  0  0  0  0
  2  3  1  0  0  0  0
  2  7  1  0  0  0  0
  3  4  2  0  0  0  0
  4  9  1  0  0  0  0
  4  5  1  0  0  0  0
  6  5  2  0  0  0  0
  7  6  1  0  0  0  0
  8  7  2  0  0  0  0
  9 10  2  0  0  0  0
 11  9  1  0  0  0  0
 12 11  1  0  0  0  0
M  END
>  <MODEL>
5

>  <REMARK>
 VINA RESULT:      -5.3      3.691      4.741
  2 active torsions:
  status: ('A' for Active; 'I' for Inactive)
    1  A    between atoms: C_4  and  C_9 
    2  A    between atoms: C_9  and  O_11 

>  <TORSDO>
F 2

$$$$
../results/processed/lowest_conf/7XP5/docked/b5.pdbqt
 OpenBabel07252416053D

 12 12  0  0  0  0  0  0  0  0999 V2000
  137.4240  143.6450   97.0150 O   0  0  0  0  0  0  0  0  0  0  0  0
  137.5660  143.4530   98.2130 C   0  0  0  0  0  0  0  0  0  0  0  0
  138.8680  143.6930   98.8690 C   0  0  0  0  0  3  0  0  0  0  0  0
  139.0130  143.4790  100.1850 C   0  0  0  0  0  0  0  0  0  0  0  0
  137.9140  143.0100  101.0090 C   0  0  0  0  0  3  0  0  0  0  0  0
  136.6920  142.7600  100.5250 C   0  0  0  0  0  3  0  0  0  0  0  0
  136.4110  142.9600   99.0870 C   0  0  0  0  0  0  0  0  0  0  0  0
  135.3020  142.7370   98.6280 O   0  0  0  0  0  0  0  0  0  0  0  0
  140.3650  143.7510  100.7410 C   0  0  0  0  0  0  0  0  0  0  0  0
  141.0050  143.0190  101.4740 O   0  0  0  0  0  0  0  0  0  0  0  0
  140.8560  144.9400  100.3500 O   0  0  0  0  0  0  0  0  0  0  0  0
  140.3700  145.5900  100.9020 H   0  0  0  0  0  0  0  0  0  0  0  0
  1  2  2  0  0  0  0
  2  3  1  0  0  0  0
  2  7  1  0  0  0  0
  3  4  2  0  0  0  0
  4  9  1  0  0  0  0
  4  5  1  0  0  0  0
  6  5  2  0  0  0  0
  7  6  1  0  0  0  0
  8  7  2  0  0  0  0
  9 10  2  0  0  0  0
 11  9  1  0  0  0  0
 11 12  1  0  0  0  0
M  END
>  <MODEL>
6

>  <REMARK>
 VINA RESULT:      -5.3     10.472     11.664
  2 active torsions:
  status: ('A' for Active; 'I' for Inactive)
    1  A    between atoms: C_4  and  C_9 
    2  A    between atoms: C_9  and  O_11 

>  <TORSDO>
F 2

$$$$
../results/processed/lowest_conf/7XP5/docked/b5.pdbqt
 OpenBabel07252416053D

 12 12  0  0  0  0  0  0  0  0999 V2000
  138.0790  143.2320  102.7050 O   0  0  0  0  0  0  0  0  0  0  0  0
  137.9110  143.0110  101.5150 C   0  0  0  0  0  0  0  0  0  0  0  0
  136.6400  142.4350  101.0260 C   0  0  0  0  0  3  0  0  0  0  0  0
  136.4650  142.1960   99.7180 C   0  0  0  0  0  0  0  0  0  0  0  0
  137.4980  142.4880   98.7420 C   0  0  0  0  0  3  0  0  0  0  0  0
  138.6860  143.0090   99.0690 C   0  0  0  0  0  3  0  0  0  0  0  0
  138.9960  143.3160  100.4820 C   0  0  0  0  0  0  0  0  0  0  0  0
  140.0740  143.7930  100.7980 O   0  0  0  0  0  0  0  0  0  0  0  0
  135.1500  141.6160   99.3360 C   0  0  0  0  0  0  0  0  0  0  0  0
  134.0600  141.9580   99.7570 O   0  0  0  0  0  0  0  0  0  0  0  0
  135.2640  140.6240   98.4360 O   0  0  0  0  0  0  0  0  0  0  0  0
  134.4150  140.1380   98.5100 H   0  0  0  0  0  0  0  0  0  0  0  0
  2  1  2  0  0  0  0
  3  2  1  0  0  0  0
  4  3  2  0  0  0  0
  5  6  2  0  0  0  0
  5  4  1  0  0  0  0
  6  7  1  0  0  0  0
  7  8  2  0  0  0  0
  7  2  1  0  0  0  0
  9  4  1  0  0  0  0
  9 10  2  0  0  0  0
 11 12  1  0  0  0  0
 11  9  1  0  0  0  0
M  END
>  <MODEL>
7

>  <REMARK>
 VINA RESULT:      -5.3     10.855     11.394
  2 active torsions:
  status: ('A' for Active; 'I' for Inactive)
    1  A    between atoms: C_4  and  C_9 
    2  A    between atoms: C_9  and  O_11 

>  <TORSDO>
F 2

$$$$
../results/processed/lowest_conf/7XP5/docked/b5.pdbqt
 OpenBabel07252416053D

 12 12  0  0  0  0  0  0  0  0999 V2000
  139.6130  144.2190   98.4190 O   0  0  0  0  0  0  0  0  0  0  0  0
  138.7970  143.7750   99.2130 C   0  0  0  0  0  0  0  0  0  0  0  0
  137.3770  143.6230   98.8330 C   0  0  0  0  0  3  0  0  0  0  0  0
  136.4890  143.1340   99.7120 C   0  0  0  0  0  0  0  0  0  0  0  0
  136.8790  142.7390  101.0530 C   0  0  0  0  0  3  0  0  0  0  0  0
  138.1340  142.8310  101.5060 C   0  0  0  0  0  3  0  0  0  0  0  0
  139.2020  143.3560  100.6270 C   0  0  0  0  0  0  0  0  0  0  0  0
  140.3520  143.4470  101.0250 O   0  0  0  0  0  0  0  0  0  0  0  0
  135.0890  143.0250   99.2250 C   0  0  0  0  0  0  0  0  0  0  0  0
  134.2930  142.1470   99.5070 O   0  0  0  0  0  0  0  0  0  0  0  0
  134.7470  144.0290   98.4000 O   0  0  0  0  0  0  0  0  0  0  0  0
  135.6080  144.3960   98.1050 H   0  0  0  0  0  0  0  0  0  0  0  0
  1  2  2  0  0  0  0
  2  7  1  0  0  0  0
  3  2  1  0  0  0  0
  3  4  2  0  0  0  0
  4  5  1  0  0  0  0
  5  6  2  0  0  0  0
  7  8  2  0  0  0  0
  7  6  1  0  0  0  0
  9 10  2  0  0  0  0
  9  4  1  0  0  0  0
 11  9  1  0  0  0  0
 12 11  1  0  0  0  0
M  END
>  <MODEL>
8

>  <REMARK>
 VINA RESULT:      -5.1     10.684     11.664
  2 active torsions:
  status: ('A' for Active; 'I' for Inactive)
    1  A    between atoms: C_4  and  C_9 
    2  A    between atoms: C_9  and  O_11 

>  <TORSDO>
F 2

$$$$
../results/processed/lowest_conf/7XP5/docked/b5.pdbqt
 OpenBabel07252416053D

 12 12  0  0  0  0  0  0  0  0999 V2000
  135.8060  142.0980   99.8680 O   0  0  0  0  0  0  0  0  0  0  0  0
  136.8110  142.5860   99.3720 C   0  0  0  0  0  0  0  0  0  0  0  0
  137.9770  142.9300  100.2130 C   0  0  0  0  0  3  0  0  0  0  0  0
  139.0760  143.4650   99.6590 C   0  0  0  0  0  0  0  0  0  0  0  0
  139.1650  143.7250   98.2340 C   0  0  0  0  0  3  0  0  0  0  0  0
  138.1730  143.4550   97.3780 C   0  0  0  0  0  3  0  0  0  0  0  0
  136.9110  142.8620   97.8710 C   0  0  0  0  0  0  0  0  0  0  0  0
  135.9960  142.6080   97.1050 O   0  0  0  0  0  0  0  0  0  0  0  0
  140.1890  143.7730  100.5950 C   0  0  0  0  0  0  0  0  0  0  0  0
  140.5360  143.1020  101.5500 O   0  0  0  0  0  0  0  0  0  0  0  0
  140.8210  144.9190  100.2890 O   0  0  0  0  0  0  0  0  0  0  0  0
  141.7730  144.6850  100.3380 H   0  0  0  0  0  0  0  0  0  0  0  0
  2  1  2  0  0  0  0
  2  3  1  0  0  0  0
  4  3  2  0  0  0  0
  4  9  1  0  0  0  0
  5  4  1  0  0  0  0
  6  7  1  0  0  0  0
  6  5  2  0  0  0  0
  7  2  1  0  0  0  0
  8  7  2  0  0  0  0
  9 10  2  0  0  0  0
 11 12  1  0  0  0  0
 11  9  1  0  0  0  0
M  END
>  <MODEL>
9

>  <REMARK>
 VINA RESULT:      -5.0     10.603     11.698
  2 active torsions:
  status: ('A' for Active; 'I' for Inactive)
    1  A    between atoms: C_4  and  C_9 
    2  A    between atoms: C_9  and  O_11 

>  <TORSDO>
F 2

$$$$
