../results/processed/lowest_conf/7XP5/docked/b5c.pdbqt
 OpenBabel07252416063D

 13 13  0  0  1  0  0  0  0  0999 V2000
  144.4690  133.6270  103.3270 C   0  0  0  0  0  2  0  0  0  0  0  0
  144.7950  132.2930  102.6600 C   0  0  0  0  0  2  0  0  0  0  0  0
  145.1790  132.4850  101.1890 C   0  0  2  0  0  3  0  0  0  0  0  0
  144.0890  133.2390  100.4230 C   0  0  0  0  0  2  0  0  0  0  0  0
  143.7630  134.5800  101.0900 C   0  0  2  0  0  3  0  0  0  0  0  0
  143.3860  134.3840  102.5640 C   0  0  0  0  0  2  0  0  0  0  0  0
  142.6500  135.2770  100.3400 C   0  0  0  0  0  0  0  0  0  0  0  0
  141.8060  134.7650   99.6250 O   0  0  0  0  0  0  0  0  0  0  0  0
  142.6410  136.6080  100.5540 O   0  0  0  0  0  0  0  0  0  0  0  0
  141.8640  136.7470  101.1360 H   0  0  0  0  0  0  0  0  0  0  0  0
  145.4120  131.1840  100.5650 N   0  0  0  0  0  0  0  0  0  0  0  0
  145.0230  131.1770   99.6230 H   0  0  0  0  0  0  0  0  0  0  0  0
  146.4140  131.0240  100.4630 H   0  0  0  0  0  0  0  0  0  0  0  0
  2  1  1  0  0  0  0
  3 11  1  6  0  0  0
  3  2  1  0  0  0  0
  4  5  1  0  0  0  0
  4  3  1  0  0  0  0
  5  7  1  6  0  0  0
  5  6  1  0  0  0  0
  6  1  1  0  0  0  0
  7  9  1  0  0  0  0
  8  7  2  0  0  0  0
  9 10  1  0  0  0  0
 12 11  1  0  0  0  0
 13 11  1  0  0  0  0
M  END
>  <MODEL>
1

>  <REMARK>
 VINA RESULT:      -5.8      0.000      0.000
  3 active torsions:
  status: ('A' for Active; 'I' for Inactive)
    1  A    between atoms: C_3  and  N_4 
    2  A    between atoms: C_6  and  C_8 
    3  A    between atoms: C_8  and  O_10 

>  <TORSDO>
F 3

$$$$
../results/processed/lowest_conf/7XP5/docked/b5c.pdbqt
 OpenBabel07252416063D

 13 13  0  0  1  0  0  0  0  0999 V2000
  143.8260  132.5570  102.8440 C   0  0  0  0  0  2  0  0  0  0  0  0
  143.5480  134.0420  102.6280 C   0  0  0  0  0  2  0  0  0  0  0  0
  143.4110  134.3710  101.1370 C   0  0  2  0  0  3  0  0  0  0  0  0
  144.6430  133.9160  100.3510 C   0  0  0  0  0  2  0  0  0  0  0  0
  144.9230  132.4240  100.5660 C   0  0  2  0  0  3  0  0  0  0  0  0
  145.0510  132.0970  102.0600 C   0  0  0  0  0  2  0  0  0  0  0  0
  146.1730  132.0160   99.8190 C   0  0  0  0  0  0  0  0  0  0  0  0
  146.6170  132.5080   98.7950 O   0  0  0  0  0  0  0  0  0  0  0  0
  146.8270  131.0050  100.4250 O   0  0  0  0  0  0  0  0  0  0  0  0
  146.4590  130.2010  100.0020 H   0  0  0  0  0  0  0  0  0  0  0  0
  143.2180  135.8090  100.9650 N   0  0  0  0  0  0  0  0  0  0  0  0
  142.6040  135.9840  100.1690 H   0  0  0  0  0  0  0  0  0  0  0  0
  142.7460  136.1960  101.7810 H   0  0  0  0  0  0  0  0  0  0  0  0
  2  1  1  0  0  0  0
  3 11  1  1  0  0  0
  3  2  1  0  0  0  0
  4  5  1  0  0  0  0
  4  3  1  0  0  0  0
  5  7  1  6  0  0  0
  5  6  1  0  0  0  0
  6  1  1  0  0  0  0
  7  9  1  0  0  0  0
  8  7  2  0  0  0  0
 10  9  1  0  0  0  0
 11 13  1  0  0  0  0
 12 11  1  0  0  0  0
M  END
>  <MODEL>
2

>  <REMARK>
 VINA RESULT:      -5.7      3.185      3.949
  3 active torsions:
  status: ('A' for Active; 'I' for Inactive)
    1  A    between atoms: C_3  and  N_4 
    2  A    between atoms: C_6  and  C_8 
    3  A    between atoms: C_8  and  O_10 

>  <TORSDO>
F 3

$$$$
../results/processed/lowest_conf/7XP5/docked/b5c.pdbqt
 OpenBabel07252416063D

 13 13  0  0  1  0  0  0  0  0999 V2000
  145.3080  133.3490  100.4010 C   0  0  0  0  0  2  0  0  0  0  0  0
  145.9960  133.6720  101.7250 C   0  0  0  0  0  2  0  0  0  0  0  0
  144.9880  133.7200  102.8780 C   0  0  2  0  0  3  0  0  0  0  0  0
  143.8530  134.7050  102.5850 C   0  0  0  0  0  2  0  0  0  0  0  0
  143.1600  134.3800  101.2570 C   0  0  2  0  0  3  0  0  0  0  0  0
  144.1730  134.3250  100.1060 C   0  0  0  0  0  2  0  0  0  0  0  0
  142.0790  135.3980  100.9710 C   0  0  0  0  0  0  0  0  0  0  0  0
  140.8800  135.2750  101.1530 O   0  0  0  0  0  0  0  0  0  0  0  0
  142.5770  136.5530  100.4840 O   0  0  0  0  0  0  0  0  0  0  0  0
  141.8160  137.1700  100.5210 H   0  0  0  0  0  0  0  0  0  0  0  0
  145.6690  134.1030  104.1130 N   0  0  0  0  0  0  0  0  0  0  0  0
  145.8190  135.1120  104.1270 H   0  0  0  0  0  0  0  0  0  0  0  0
  145.0770  133.8900  104.9150 H   0  0  0  0  0  0  0  0  0  0  0  0
  1  2  1  0  0  0  0
  2  3  1  0  0  0  0
  3 11  1  1  0  0  0
  4  3  1  0  0  0  0
  5  7  1  6  0  0  0
  5  4  1  0  0  0  0
  6  1  1  0  0  0  0
  6  5  1  0  0  0  0
  7  8  2  0  0  0  0
  9 10  1  0  0  0  0
  9  7  1  0  0  0  0
 11 12  1  0  0  0  0
 11 13  1  0  0  0  0
M  END
>  <MODEL>
3

>  <REMARK>
 VINA RESULT:      -5.5      1.776      2.394
  3 active torsions:
  status: ('A' for Active; 'I' for Inactive)
    1  A    between atoms: C_3  and  N_4 
    2  A    between atoms: C_6  and  C_8 
    3  A    between atoms: C_8  and  O_10 

>  <TORSDO>
F 3

$$$$
../results/processed/lowest_conf/7XP5/docked/b5c.pdbqt
 OpenBabel07252416063D

 13 13  0  0  1  0  0  0  0  0999 V2000
  147.3230  133.8450  100.1770 C   0  0  0  0  0  2  0  0  0  0  0  0
  147.1950  132.3340  100.0090 C   0  0  0  0  0  2  0  0  0  0  0  0
  145.7870  131.8510  100.3720 C   0  0  2  0  0  3  0  0  0  0  0  0
  145.3950  132.2890  101.7850 C   0  0  0  0  0  2  0  0  0  0  0  0
  145.5210  133.8070  101.9550 C   0  0  2  0  0  3  0  0  0  0  0  0
  146.9300  134.2880  101.5830 C   0  0  0  0  0  2  0  0  0  0  0  0
  145.1770  134.2020  103.3730 C   0  0  0  0  0  0  0  0  0  0  0  0
  145.7930  133.9280  104.3880 O   0  0  0  0  0  0  0  0  0  0  0  0
  144.0630  134.9600  103.4400 O   0  0  0  0  0  0  0  0  0  0  0  0
  144.3550  135.7650  103.9160 H   0  0  0  0  0  0  0  0  0  0  0  0
  145.7230  130.3940  100.2700 N   0  0  0  0  0  0  0  0  0  0  0  0
  144.9510  130.1230   99.6600 H   0  0  0  0  0  0  0  0  0  0  0  0
  146.5730  130.0400   99.8310 H   0  0  0  0  0  0  0  0  0  0  0  0
  1  6  1  0  0  0  0
  2  1  1  0  0  0  0
  2  3  1  0  0  0  0
  3 11  1  1  0  0  0
  3  4  1  0  0  0  0
  4  5  1  0  0  0  0
  5  7  1  1  0  0  0
  6  5  1  0  0  0  0
  7  9  1  0  0  0  0
  7  8  2  0  0  0  0
  9 10  1  0  0  0  0
 12 11  1  0  0  0  0
 13 11  1  0  0  0  0
M  END
>  <MODEL>
4

>  <REMARK>
 VINA RESULT:      -5.3      2.651      3.531
  3 active torsions:
  status: ('A' for Active; 'I' for Inactive)
    1  A    between atoms: C_3  and  N_4 
    2  A    between atoms: C_6  and  C_8 
    3  A    between atoms: C_8  and  O_10 

>  <TORSDO>
F 3

$$$$
../results/processed/lowest_conf/7XP5/docked/b5c.pdbqt
 OpenBabel07252416063D

 13 13  0  0  1  0  0  0  0  0999 V2000
  136.6040  142.2380  100.8980 C   0  0  0  0  0  2  0  0  0  0  0  0
  135.7970  143.0640   99.9010 C   0  0  0  0  0  2  0  0  0  0  0  0
  136.5910  143.3150   98.6140 C   0  0  2  0  0  3  0  0  0  0  0  0
  137.9430  143.9690   98.9130 C   0  0  0  0  0  2  0  0  0  0  0  0
  138.7560  143.1380   99.9130 C   0  0  2  0  0  3  0  0  0  0  0  0
  137.9550  142.8820  101.1960 C   0  0  0  0  0  2  0  0  0  0  0  0
  140.0610  143.8340  100.2260 C   0  0  0  0  0  0  0  0  0  0  0  0
  140.9120  143.4860  101.0280 O   0  0  0  0  0  0  0  0  0  0  0  0
  140.2450  144.9420   99.4810 O   0  0  0  0  0  0  0  0  0  0  0  0
  141.2180  145.0570   99.4660 H   0  0  0  0  0  0  0  0  0  0  0  0
  135.8170  144.1680   97.7150 N   0  0  0  0  0  0  0  0  0  0  0  0
  135.6180  143.6680   96.8490 H   0  0  0  0  0  0  0  0  0  0  0  0
  134.9140  144.3840   98.1350 H   0  0  0  0  0  0  0  0  0  0  0  0
  1  6  1  0  0  0  0
  2  1  1  0  0  0  0
  3 11  1  6  0  0  0
  3  4  1  0  0  0  0
  3  2  1  0  0  0  0
  4  5  1  0  0  0  0
  5  7  1  1  0  0  0
  5  6  1  0  0  0  0
  7  8  2  0  0  0  0
  9  7  1  0  0  0  0
 10  9  1  0  0  0  0
 11 13  1  0  0  0  0
 12 11  1  0  0  0  0
M  END
>  <MODEL>
5

>  <REMARK>
 VINA RESULT:      -5.1     11.202     11.860
  3 active torsions:
  status: ('A' for Active; 'I' for Inactive)
    1  A    between atoms: C_3  and  N_4 
    2  A    between atoms: C_6  and  C_8 
    3  A    between atoms: C_8  and  O_10 

>  <TORSDO>
F 3

$$$$
../results/processed/lowest_conf/7XP5/docked/b5c.pdbqt
 OpenBabel07252416063D

 13 13  0  0  1  0  0  0  0  0999 V2000
  145.0990  131.6390  101.8530 C   0  0  0  0  0  2  0  0  0  0  0  0
  144.8060  132.7130  102.8970 C   0  0  0  0  0  2  0  0  0  0  0  0
  144.1290  133.9340  102.2650 C   0  0  2  0  0  3  0  0  0  0  0  0
  144.9600  134.4940  101.1080 C   0  0  0  0  0  2  0  0  0  0  0  0
  145.2530  133.4170  100.0570 C   0  0  2  0  0  3  0  0  0  0  0  0
  145.9230  132.1930  100.6950 C   0  0  0  0  0  2  0  0  0  0  0  0
  146.1160  133.9860   98.9540 C   0  0  0  0  0  0  0  0  0  0  0  0
  147.1730  134.5820   99.0740 O   0  0  0  0  0  0  0  0  0  0  0  0
  145.6050  133.7510   97.7290 O   0  0  0  0  0  0  0  0  0  0  0  0
  144.8290  134.3470   97.6790 H   0  0  0  0  0  0  0  0  0  0  0  0
  143.9320  134.9680  103.2780 N   0  0  0  0  0  0  0  0  0  0  0  0
  143.8220  135.8770  102.8280 H   0  0  0  0  0  0  0  0  0  0  0  0
  143.0660  134.7940  103.7880 H   0  0  0  0  0  0  0  0  0  0  0  0
  1  2  1  0  0  0  0
  3  2  1  0  0  0  0
  3 11  1  1  0  0  0
  4  3  1  0  0  0  0
  5  7  1  6  0  0  0
  5  6  1  0  0  0  0
  5  4  1  0  0  0  0
  6  1  1  0  0  0  0
  7  8  2  0  0  0  0
  9  7  1  0  0  0  0
 10  9  1  0  0  0  0
 11 13  1  0  0  0  0
 12 11  1  0  0  0  0
M  END
>  <MODEL>
6

>  <REMARK>
 VINA RESULT:      -5.0      2.875      3.561
  3 active torsions:
  status: ('A' for Active; 'I' for Inactive)
    1  A    between atoms: C_3  and  N_4 
    2  A    between atoms: C_6  and  C_8 
    3  A    between atoms: C_8  and  O_10 

>  <TORSDO>
F 3

$$$$
../results/processed/lowest_conf/7XP5/docked/b5c.pdbqt
 OpenBabel07252416063D

 13 13  0  0  1  0  0  0  0  0999 V2000
  150.0720  130.7250   94.4800 C   0  0  0  0  0  2  0  0  0  0  0  0
  149.0180  131.7100   94.9770 C   0  0  0  0  0  2  0  0  0  0  0  0
  149.2380  132.0640   96.4520 C   0  0  2  0  0  3  0  0  0  0  0  0
  149.2810  130.8070   97.3250 C   0  0  0  0  0  2  0  0  0  0  0  0
  150.3420  129.8170   96.8280 C   0  0  2  0  0  3  0  0  0  0  0  0
  150.1230  129.4720   95.3490 C   0  0  0  0  0  2  0  0  0  0  0  0
  150.3260  128.5670   97.6780 C   0  0  0  0  0  0  0  0  0  0  0  0
  150.1130  128.4890   98.8760 O   0  0  0  0  0  0  0  0  0  0  0  0
  150.5600  127.4520   96.9560 O   0  0  0  0  0  0  0  0  0  0  0  0
  151.4570  127.5950   96.5880 H   0  0  0  0  0  0  0  0  0  0  0  0
  148.1700  132.9490   96.9120 N   0  0  0  0  0  0  0  0  0  0  0  0
  148.4560  133.9220   96.8030 H   0  0  0  0  0  0  0  0  0  0  0  0
  147.3430  132.8260   96.3290 H   0  0  0  0  0  0  0  0  0  0  0  0
  1  2  1  0  0  0  0
  1  6  1  0  0  0  0
  2  3  1  0  0  0  0
  3 11  1  1  0  0  0
  3  4  1  0  0  0  0
  5  4  1  0  0  0  0
  5  7  1  1  0  0  0
  6  5  1  0  0  0  0
  7  8  2  0  0  0  0
  9  7  1  0  0  0  0
 10  9  1  0  0  0  0
 12 11  1  0  0  0  0
 13 11  1  0  0  0  0
M  END
>  <MODEL>
7

>  <REMARK>
 VINA RESULT:      -4.9      8.089      9.413
  3 active torsions:
  status: ('A' for Active; 'I' for Inactive)
    1  A    between atoms: C_3  and  N_4 
    2  A    between atoms: C_6  and  C_8 
    3  A    between atoms: C_8  and  O_10 

>  <TORSDO>
F 3

$$$$
../results/processed/lowest_conf/7XP5/docked/b5c.pdbqt
 OpenBabel07252416063D

 13 13  0  0  1  0  0  0  0  0999 V2000
  147.8630  132.8010   98.2730 C   0  0  0  0  0  2  0  0  0  0  0  0
  146.7920  133.6610   97.6060 C   0  0  0  0  0  2  0  0  0  0  0  0
  145.9080  134.3560   98.6470 C   0  0  2  0  0  3  0  0  0  0  0  0
  145.2880  133.3440   99.6150 C   0  0  0  0  0  2  0  0  0  0  0  0
  146.3620  132.4820  100.2880 C   0  0  2  0  0  3  0  0  0  0  0  0
  147.2500  131.7950   99.2420 C   0  0  0  0  0  2  0  0  0  0  0  0
  145.7170  131.4620  101.1970 C   0  0  0  0  0  0  0  0  0  0  0  0
  145.3570  131.6210  102.3510 O   0  0  0  0  0  0  0  0  0  0  0  0
  145.5310  130.2740  100.5860 O   0  0  0  0  0  0  0  0  0  0  0  0
  146.4340  129.8990  100.5230 H   0  0  0  0  0  0  0  0  0  0  0  0
  144.8520  135.1080   97.9740 N   0  0  0  0  0  0  0  0  0  0  0  0
  145.1900  136.0410   97.7350 H   0  0  0  0  0  0  0  0  0  0  0  0
  144.6120  134.6560   97.0930 H   0  0  0  0  0  0  0  0  0  0  0  0
  1  6  1  0  0  0  0
  2  1  1  0  0  0  0
  2  3  1  0  0  0  0
  3 11  1  6  0  0  0
  3  4  1  0  0  0  0
  4  5  1  0  0  0  0
  5  7  1  6  0  0  0
  6  5  1  0  0  0  0
  7  8  2  0  0  0  0
  9  7  1  0  0  0  0
 10  9  1  0  0  0  0
 12 11  1  0  0  0  0
 13 11  1  0  0  0  0
M  END
>  <MODEL>
8

>  <REMARK>
 VINA RESULT:      -4.9      3.748      5.017
  3 active torsions:
  status: ('A' for Active; 'I' for Inactive)
    1  A    between atoms: C_3  and  N_4 
    2  A    between atoms: C_6  and  C_8 
    3  A    between atoms: C_8  and  O_10 

>  <TORSDO>
F 3

$$$$
../results/processed/lowest_conf/7XP5/docked/b5c.pdbqt
 OpenBabel07252416063D

 13 13  0  0  1  0  0  0  0  0999 V2000
  138.7090  143.7820   97.2550 C   0  0  0  0  0  2  0  0  0  0  0  0
  139.5550  144.6910   98.1430 C   0  0  0  0  0  2  0  0  0  0  0  0
  140.0000  143.9670   99.4180 C   0  0  2  0  0  3  0  0  0  0  0  0
  138.8000  143.4000  100.1830 C   0  0  0  0  0  2  0  0  0  0  0  0
  137.9520  142.4850   99.2930 C   0  0  2  0  0  3  0  0  0  0  0  0
  137.5150  143.2110   98.0140 C   0  0  0  0  0  2  0  0  0  0  0  0
  136.7500  141.9820  100.0600 C   0  0  0  0  0  0  0  0  0  0  0  0
  135.9010  142.6490  100.6270 O   0  0  0  0  0  0  0  0  0  0  0  0
  136.6620  140.6370  100.0540 O   0  0  0  0  0  0  0  0  0  0  0  0
  135.8820  140.4550   99.4900 H   0  0  0  0  0  0  0  0  0  0  0  0
  140.7430  144.8870  100.2760 N   0  0  0  0  0  0  0  0  0  0  0  0
  140.2610  144.9950  101.1680 H   0  0  0  0  0  0  0  0  0  0  0  0
  141.6600  144.4970  100.4900 H   0  0  0  0  0  0  0  0  0  0  0  0
  1  6  1  0  0  0  0
  1  2  1  0  0  0  0
  2  3  1  0  0  0  0
  3  4  1  0  0  0  0
  3 11  1  1  0  0  0
  5  7  1  1  0  0  0
  5  4  1  0  0  0  0
  6  5  1  0  0  0  0
  7  8  2  0  0  0  0
  9  7  1  0  0  0  0
 10  9  1  0  0  0  0
 11 13  1  0  0  0  0
 11 12  1  0  0  0  0
M  END
>  <MODEL>
9

>  <REMARK>
 VINA RESULT:      -4.8     10.876     11.576
  3 active torsions:
  status: ('A' for Active; 'I' for Inactive)
    1  A    between atoms: C_3  and  N_4 
    2  A    between atoms: C_6  and  C_8 
    3  A    between atoms: C_8  and  O_10 

>  <TORSDO>
F 3

$$$$
