MODEL 1
REMARK VINA RESULT:      -5.8      0.000      0.000
REMARK  3 active torsions:
REMARK  status: ('A' for Active; 'I' for Inactive)
REMARK    1  A    between atoms: C_3  and  N_4 
REMARK    2  A    between atoms: C_6  and  C_8 
REMARK    3  A    between atoms: C_8  and  O_10 
ROOT
ATOM      1  C   UNL d   1     144.469 133.627 103.327  0.00  0.00     0.003 C 
ATOM      2  C   UNL d   1     144.795 132.293 102.660  0.00  0.00     0.035 C 
ATOM      3  C   UNL d   1     145.179 132.485 101.189  0.00  0.00     0.218 C 
ATOM      4  C   UNL d   1     144.089 133.239 100.423  0.00  0.00     0.050 C 
ATOM      5  C   UNL d   1     143.763 134.580 101.090  0.00  0.00     0.085 C 
ATOM      6  C   UNL d   1     143.386 134.384 102.564  0.00  0.00     0.015 C 
ENDROOT
BRANCH   5   7
ATOM      7  C   UNL d   1     142.650 135.277 100.340  0.00  0.00     0.143 C 
ATOM      8  O   UNL d   1     141.806 134.765  99.625  0.00  0.00    -0.650 OA
BRANCH   7   9
ATOM      9  O   UNL d   1     142.641 136.608 100.554  0.00  0.00    -0.776 OA
ATOM     10  H   UNL d   1     141.864 136.747 101.136  0.00  0.00     0.167 HD
ENDBRANCH   7   9
ENDBRANCH   5   7
BRANCH   3  11
ATOM     11  N   UNL d   1     145.412 131.184 100.565  0.00  0.00     0.083 N 
ATOM     12  H   UNL d   1     145.023 131.177  99.623  0.00  0.00     0.313 HD
ATOM     13  H   UNL d   1     146.414 131.024 100.463  0.00  0.00     0.313 HD
ENDBRANCH   3  11
TORSDOF 3
ENDMDL
MODEL 2
REMARK VINA RESULT:      -5.7      3.185      3.949
REMARK  3 active torsions:
REMARK  status: ('A' for Active; 'I' for Inactive)
REMARK    1  A    between atoms: C_3  and  N_4 
REMARK    2  A    between atoms: C_6  and  C_8 
REMARK    3  A    between atoms: C_8  and  O_10 
ROOT
ATOM      1  C   UNL d   1     143.826 132.557 102.844  0.00  0.00     0.003 C 
ATOM      2  C   UNL d   1     143.548 134.042 102.628  0.00  0.00     0.035 C 
ATOM      3  C   UNL d   1     143.411 134.371 101.137  0.00  0.00     0.218 C 
ATOM      4  C   UNL d   1     144.643 133.916 100.351  0.00  0.00     0.050 C 
ATOM      5  C   UNL d   1     144.923 132.424 100.566  0.00  0.00     0.085 C 
ATOM      6  C   UNL d   1     145.051 132.097 102.060  0.00  0.00     0.015 C 
ENDROOT
BRANCH   5   7
ATOM      7  C   UNL d   1     146.173 132.016  99.819  0.00  0.00     0.143 C 
ATOM      8  O   UNL d   1     146.617 132.508  98.795  0.00  0.00    -0.650 OA
BRANCH   7   9
ATOM      9  O   UNL d   1     146.827 131.005 100.425  0.00  0.00    -0.776 OA
ATOM     10  H   UNL d   1     146.459 130.201 100.002  0.00  0.00     0.167 HD
ENDBRANCH   7   9
ENDBRANCH   5   7
BRANCH   3  11
ATOM     11  N   UNL d   1     143.218 135.809 100.965  0.00  0.00     0.083 N 
ATOM     12  H   UNL d   1     142.604 135.984 100.169  0.00  0.00     0.313 HD
ATOM     13  H   UNL d   1     142.746 136.196 101.781  0.00  0.00     0.313 HD
ENDBRANCH   3  11
TORSDOF 3
ENDMDL
MODEL 3
REMARK VINA RESULT:      -5.5      1.776      2.394
REMARK  3 active torsions:
REMARK  status: ('A' for Active; 'I' for Inactive)
REMARK    1  A    between atoms: C_3  and  N_4 
REMARK    2  A    between atoms: C_6  and  C_8 
REMARK    3  A    between atoms: C_8  and  O_10 
ROOT
ATOM      1  C   UNL d   1     145.308 133.349 100.401  0.00  0.00     0.003 C 
ATOM      2  C   UNL d   1     145.996 133.672 101.725  0.00  0.00     0.035 C 
ATOM      3  C   UNL d   1     144.988 133.720 102.878  0.00  0.00     0.218 C 
ATOM      4  C   UNL d   1     143.853 134.705 102.585  0.00  0.00     0.050 C 
ATOM      5  C   UNL d   1     143.160 134.380 101.257  0.00  0.00     0.085 C 
ATOM      6  C   UNL d   1     144.173 134.325 100.106  0.00  0.00     0.015 C 
ENDROOT
BRANCH   5   7
ATOM      7  C   UNL d   1     142.079 135.398 100.971  0.00  0.00     0.143 C 
ATOM      8  O   UNL d   1     140.880 135.275 101.153  0.00  0.00    -0.650 OA
BRANCH   7   9
ATOM      9  O   UNL d   1     142.577 136.553 100.484  0.00  0.00    -0.776 OA
ATOM     10  H   UNL d   1     141.816 137.170 100.521  0.00  0.00     0.167 HD
ENDBRANCH   7   9
ENDBRANCH   5   7
BRANCH   3  11
ATOM     11  N   UNL d   1     145.669 134.103 104.113  0.00  0.00     0.083 N 
ATOM     12  H   UNL d   1     145.819 135.112 104.127  0.00  0.00     0.313 HD
ATOM     13  H   UNL d   1     145.077 133.890 104.915  0.00  0.00     0.313 HD
ENDBRANCH   3  11
TORSDOF 3
ENDMDL
MODEL 4
REMARK VINA RESULT:      -5.3      2.651      3.531
REMARK  3 active torsions:
REMARK  status: ('A' for Active; 'I' for Inactive)
REMARK    1  A    between atoms: C_3  and  N_4 
REMARK    2  A    between atoms: C_6  and  C_8 
REMARK    3  A    between atoms: C_8  and  O_10 
ROOT
ATOM      1  C   UNL d   1     147.323 133.845 100.177  0.00  0.00     0.003 C 
ATOM      2  C   UNL d   1     147.195 132.334 100.009  0.00  0.00     0.035 C 
ATOM      3  C   UNL d   1     145.787 131.851 100.372  0.00  0.00     0.218 C 
ATOM      4  C   UNL d   1     145.395 132.289 101.785  0.00  0.00     0.050 C 
ATOM      5  C   UNL d   1     145.521 133.807 101.955  0.00  0.00     0.085 C 
ATOM      6  C   UNL d   1     146.930 134.288 101.583  0.00  0.00     0.015 C 
ENDROOT
BRANCH   5   7
ATOM      7  C   UNL d   1     145.177 134.202 103.373  0.00  0.00     0.143 C 
ATOM      8  O   UNL d   1     145.793 133.928 104.388  0.00  0.00    -0.650 OA
BRANCH   7   9
ATOM      9  O   UNL d   1     144.063 134.960 103.440  0.00  0.00    -0.776 OA
ATOM     10  H   UNL d   1     144.355 135.765 103.916  0.00  0.00     0.167 HD
ENDBRANCH   7   9
ENDBRANCH   5   7
BRANCH   3  11
ATOM     11  N   UNL d   1     145.723 130.394 100.270  0.00  0.00     0.083 N 
ATOM     12  H   UNL d   1     144.951 130.123  99.660  0.00  0.00     0.313 HD
ATOM     13  H   UNL d   1     146.573 130.040  99.831  0.00  0.00     0.313 HD
ENDBRANCH   3  11
TORSDOF 3
ENDMDL
MODEL 5
REMARK VINA RESULT:      -5.1     11.202     11.860
REMARK  3 active torsions:
REMARK  status: ('A' for Active; 'I' for Inactive)
REMARK    1  A    between atoms: C_3  and  N_4 
REMARK    2  A    between atoms: C_6  and  C_8 
REMARK    3  A    between atoms: C_8  and  O_10 
ROOT
ATOM      1  C   UNL d   1     136.604 142.238 100.898  0.00  0.00     0.003 C 
ATOM      2  C   UNL d   1     135.797 143.064  99.901  0.00  0.00     0.035 C 
ATOM      3  C   UNL d   1     136.591 143.315  98.614  0.00  0.00     0.218 C 
ATOM      4  C   UNL d   1     137.943 143.969  98.913  0.00  0.00     0.050 C 
ATOM      5  C   UNL d   1     138.756 143.138  99.913  0.00  0.00     0.085 C 
ATOM      6  C   UNL d   1     137.955 142.882 101.196  0.00  0.00     0.015 C 
ENDROOT
BRANCH   5   7
ATOM      7  C   UNL d   1     140.061 143.834 100.226  0.00  0.00     0.143 C 
ATOM      8  O   UNL d   1     140.912 143.486 101.028  0.00  0.00    -0.650 OA
BRANCH   7   9
ATOM      9  O   UNL d   1     140.245 144.942  99.481  0.00  0.00    -0.776 OA
ATOM     10  H   UNL d   1     141.218 145.057  99.466  0.00  0.00     0.167 HD
ENDBRANCH   7   9
ENDBRANCH   5   7
BRANCH   3  11
ATOM     11  N   UNL d   1     135.817 144.168  97.715  0.00  0.00     0.083 N 
ATOM     12  H   UNL d   1     135.618 143.668  96.849  0.00  0.00     0.313 HD
ATOM     13  H   UNL d   1     134.914 144.384  98.135  0.00  0.00     0.313 HD
ENDBRANCH   3  11
TORSDOF 3
ENDMDL
MODEL 6
REMARK VINA RESULT:      -5.0      2.875      3.561
REMARK  3 active torsions:
REMARK  status: ('A' for Active; 'I' for Inactive)
REMARK    1  A    between atoms: C_3  and  N_4 
REMARK    2  A    between atoms: C_6  and  C_8 
REMARK    3  A    between atoms: C_8  and  O_10 
ROOT
ATOM      1  C   UNL d   1     145.099 131.639 101.853  0.00  0.00     0.003 C 
ATOM      2  C   UNL d   1     144.806 132.713 102.897  0.00  0.00     0.035 C 
ATOM      3  C   UNL d   1     144.129 133.934 102.265  0.00  0.00     0.218 C 
ATOM      4  C   UNL d   1     144.960 134.494 101.108  0.00  0.00     0.050 C 
ATOM      5  C   UNL d   1     145.253 133.417 100.057  0.00  0.00     0.085 C 
ATOM      6  C   UNL d   1     145.923 132.193 100.695  0.00  0.00     0.015 C 
ENDROOT
BRANCH   5   7
ATOM      7  C   UNL d   1     146.116 133.986  98.954  0.00  0.00     0.143 C 
ATOM      8  O   UNL d   1     147.173 134.582  99.074  0.00  0.00    -0.650 OA
BRANCH   7   9
ATOM      9  O   UNL d   1     145.605 133.751  97.729  0.00  0.00    -0.776 OA
ATOM     10  H   UNL d   1     144.829 134.347  97.679  0.00  0.00     0.167 HD
ENDBRANCH   7   9
ENDBRANCH   5   7
BRANCH   3  11
ATOM     11  N   UNL d   1     143.932 134.968 103.278  0.00  0.00     0.083 N 
ATOM     12  H   UNL d   1     143.822 135.877 102.828  0.00  0.00     0.313 HD
ATOM     13  H   UNL d   1     143.066 134.794 103.788  0.00  0.00     0.313 HD
ENDBRANCH   3  11
TORSDOF 3
ENDMDL
MODEL 7
REMARK VINA RESULT:      -4.9      8.089      9.413
REMARK  3 active torsions:
REMARK  status: ('A' for Active; 'I' for Inactive)
REMARK    1  A    between atoms: C_3  and  N_4 
REMARK    2  A    between atoms: C_6  and  C_8 
REMARK    3  A    between atoms: C_8  and  O_10 
ROOT
ATOM      1  C   UNL d   1     150.072 130.725  94.480  0.00  0.00     0.003 C 
ATOM      2  C   UNL d   1     149.018 131.710  94.977  0.00  0.00     0.035 C 
ATOM      3  C   UNL d   1     149.238 132.064  96.452  0.00  0.00     0.218 C 
ATOM      4  C   UNL d   1     149.281 130.807  97.325  0.00  0.00     0.050 C 
ATOM      5  C   UNL d   1     150.342 129.817  96.828  0.00  0.00     0.085 C 
ATOM      6  C   UNL d   1     150.123 129.472  95.349  0.00  0.00     0.015 C 
ENDROOT
BRANCH   5   7
ATOM      7  C   UNL d   1     150.326 128.567  97.678  0.00  0.00     0.143 C 
ATOM      8  O   UNL d   1     150.113 128.489  98.876  0.00  0.00    -0.650 OA
BRANCH   7   9
ATOM      9  O   UNL d   1     150.560 127.452  96.956  0.00  0.00    -0.776 OA
ATOM     10  H   UNL d   1     151.457 127.595  96.588  0.00  0.00     0.167 HD
ENDBRANCH   7   9
ENDBRANCH   5   7
BRANCH   3  11
ATOM     11  N   UNL d   1     148.170 132.949  96.912  0.00  0.00     0.083 N 
ATOM     12  H   UNL d   1     148.456 133.922  96.803  0.00  0.00     0.313 HD
ATOM     13  H   UNL d   1     147.343 132.826  96.329  0.00  0.00     0.313 HD
ENDBRANCH   3  11
TORSDOF 3
ENDMDL
MODEL 8
REMARK VINA RESULT:      -4.9      3.748      5.017
REMARK  3 active torsions:
REMARK  status: ('A' for Active; 'I' for Inactive)
REMARK    1  A    between atoms: C_3  and  N_4 
REMARK    2  A    between atoms: C_6  and  C_8 
REMARK    3  A    between atoms: C_8  and  O_10 
ROOT
ATOM      1  C   UNL d   1     147.863 132.801  98.273  0.00  0.00     0.003 C 
ATOM      2  C   UNL d   1     146.792 133.661  97.606  0.00  0.00     0.035 C 
ATOM      3  C   UNL d   1     145.908 134.356  98.647  0.00  0.00     0.218 C 
ATOM      4  C   UNL d   1     145.288 133.344  99.615  0.00  0.00     0.050 C 
ATOM      5  C   UNL d   1     146.362 132.482 100.288  0.00  0.00     0.085 C 
ATOM      6  C   UNL d   1     147.250 131.795  99.242  0.00  0.00     0.015 C 
ENDROOT
BRANCH   5   7
ATOM      7  C   UNL d   1     145.717 131.462 101.197  0.00  0.00     0.143 C 
ATOM      8  O   UNL d   1     145.357 131.621 102.351  0.00  0.00    -0.650 OA
BRANCH   7   9
ATOM      9  O   UNL d   1     145.531 130.274 100.586  0.00  0.00    -0.776 OA
ATOM     10  H   UNL d   1     146.434 129.899 100.523  0.00  0.00     0.167 HD
ENDBRANCH   7   9
ENDBRANCH   5   7
BRANCH   3  11
ATOM     11  N   UNL d   1     144.852 135.108  97.974  0.00  0.00     0.083 N 
ATOM     12  H   UNL d   1     145.190 136.041  97.735  0.00  0.00     0.313 HD
ATOM     13  H   UNL d   1     144.612 134.656  97.093  0.00  0.00     0.313 HD
ENDBRANCH   3  11
TORSDOF 3
ENDMDL
MODEL 9
REMARK VINA RESULT:      -4.8     10.876     11.576
REMARK  3 active torsions:
REMARK  status: ('A' for Active; 'I' for Inactive)
REMARK    1  A    between atoms: C_3  and  N_4 
REMARK    2  A    between atoms: C_6  and  C_8 
REMARK    3  A    between atoms: C_8  and  O_10 
ROOT
ATOM      1  C   UNL d   1     138.709 143.782  97.255  0.00  0.00     0.003 C 
ATOM      2  C   UNL d   1     139.555 144.691  98.143  0.00  0.00     0.035 C 
ATOM      3  C   UNL d   1     140.000 143.967  99.418  0.00  0.00     0.218 C 
ATOM      4  C   UNL d   1     138.800 143.400 100.183  0.00  0.00     0.050 C 
ATOM      5  C   UNL d   1     137.952 142.485  99.293  0.00  0.00     0.085 C 
ATOM      6  C   UNL d   1     137.515 143.211  98.014  0.00  0.00     0.015 C 
ENDROOT
BRANCH   5   7
ATOM      7  C   UNL d   1     136.750 141.982 100.060  0.00  0.00     0.143 C 
ATOM      8  O   UNL d   1     135.901 142.649 100.627  0.00  0.00    -0.650 OA
BRANCH   7   9
ATOM      9  O   UNL d   1     136.662 140.637 100.054  0.00  0.00    -0.776 OA
ATOM     10  H   UNL d   1     135.882 140.455  99.490  0.00  0.00     0.167 HD
ENDBRANCH   7   9
ENDBRANCH   5   7
BRANCH   3  11
ATOM     11  N   UNL d   1     140.743 144.887 100.276  0.00  0.00     0.083 N 
ATOM     12  H   UNL d   1     140.261 144.995 101.168  0.00  0.00     0.313 HD
ATOM     13  H   UNL d   1     141.660 144.497 100.490  0.00  0.00     0.313 HD
ENDBRANCH   3  11
TORSDOF 3
ENDMDL
