MODEL 1
REMARK VINA RESULT:      -4.7      0.000      0.000
REMARK  8 active torsions:
REMARK  status: ('A' for Active; 'I' for Inactive)
REMARK    1  A    between atoms: O_2  and  C_3 
REMARK    2  A    between atoms: C_3  and  C_5 
REMARK    3  A    between atoms: C_5  and  C_6 
REMARK    4  A    between atoms: C_5  and  O_8 
REMARK    5  A    between atoms: C_6  and  O_7 
REMARK    6  A    between atoms: O_8  and  C_9 
REMARK    7  A    between atoms: C_9  and  C_10 
REMARK    8  A    between atoms: C_10  and  O_11 
ROOT
ATOM      1  C   UNL d   1     145.371 132.053 100.707  0.00  0.00     0.244 C 
ENDROOT
BRANCH   1   2
ATOM      2  C   UNL d   1     145.975 133.222  99.930  0.00  0.00     0.289 C 
ATOM      3  O   UNL d   1     146.611 134.137 100.442  0.00  0.00    -0.262 OA
BRANCH   2   4
ATOM      4  O   UNL d   1     145.685 133.119  98.603  0.00  0.00    -0.324 OA
ATOM      5  C   UNL d   1     146.400 134.041  97.777  0.00  0.00     0.213 C 
ENDBRANCH   2   4
ENDBRANCH   1   2
BRANCH   1   6
ATOM      6  C   UNL d   1     146.159 130.786 100.374  0.00  0.00     0.206 C 
BRANCH   6   7
ATOM      7  O   UNL d   1     147.482 131.130  99.954  0.00  0.00    -0.398 OA
ATOM      8  H   UNL d   1     147.409 131.339  99.002  0.00  0.00     0.209 HD
ENDBRANCH   6   7
ENDBRANCH   1   6
BRANCH   1   9
ATOM      9  O   UNL d   1     145.480 132.249 102.127  0.00  0.00    -0.371 OA
BRANCH   9  10
ATOM     10  C   UNL d   1     144.205 132.381 102.775  0.00  0.00     0.200 C 
BRANCH  10  11
ATOM     11  C   UNL d   1     143.946 133.870 103.034  0.00  0.00     0.138 C 
ATOM     12  C   UNL d   1     143.048 134.474 101.966  0.00  0.00     0.041 C 
BRANCH  11  13
ATOM     13  O   UNL d   1     145.183 134.589 103.013  0.00  0.00    -0.394 OA
ATOM     14  H   UNL d   1     145.759 134.178 102.335  0.00  0.00     0.210 HD
ENDBRANCH  11  13
ENDBRANCH  10  11
ENDBRANCH   9  10
ENDBRANCH   1   9
TORSDOF 8
ENDMDL
MODEL 2
REMARK VINA RESULT:      -4.6      1.730      4.016
REMARK  8 active torsions:
REMARK  status: ('A' for Active; 'I' for Inactive)
REMARK    1  A    between atoms: O_2  and  C_3 
REMARK    2  A    between atoms: C_3  and  C_5 
REMARK    3  A    between atoms: C_5  and  C_6 
REMARK    4  A    between atoms: C_5  and  O_8 
REMARK    5  A    between atoms: C_6  and  O_7 
REMARK    6  A    between atoms: O_8  and  C_9 
REMARK    7  A    between atoms: C_9  and  C_10 
REMARK    8  A    between atoms: C_10  and  O_11 
ROOT
ATOM      1  C   UNL d   1     145.265 132.994 100.794  0.00  0.00     0.244 C 
ENDROOT
BRANCH   1   2
ATOM      2  C   UNL d   1     143.953 133.606 101.283  0.00  0.00     0.289 C 
ATOM      3  O   UNL d   1     143.575 133.590 102.449  0.00  0.00    -0.262 OA
BRANCH   2   4
ATOM      4  O   UNL d   1     143.256 134.142 100.242  0.00  0.00    -0.324 OA
ATOM      5  C   UNL d   1     142.359 135.188 100.620  0.00  0.00     0.213 C 
ENDBRANCH   2   4
ENDBRANCH   1   2
BRANCH   1   6
ATOM      6  C   UNL d   1     145.368 131.567 101.331  0.00  0.00     0.206 C 
BRANCH   6   7
ATOM      7  O   UNL d   1     145.225 130.630 100.260  0.00  0.00    -0.398 OA
ATOM      8  H   UNL d   1     145.224 129.749 100.681  0.00  0.00     0.209 HD
ENDBRANCH   6   7
ENDBRANCH   1   6
BRANCH   1   9
ATOM      9  O   UNL d   1     145.306 132.904  99.360  0.00  0.00    -0.371 OA
BRANCH   9  10
ATOM     10  C   UNL d   1     146.407 133.622  98.783  0.00  0.00     0.200 C 
BRANCH  10  11
ATOM     11  C   UNL d   1     145.886 134.422  97.583  0.00  0.00     0.138 C 
ATOM     12  C   UNL d   1     146.923 135.414  97.081  0.00  0.00     0.041 C 
BRANCH  11  13
ATOM     13  O   UNL d   1     144.726 135.168  97.963  0.00  0.00    -0.394 OA
ATOM     14  H   UNL d   1     144.817 136.073  97.595  0.00  0.00     0.210 HD
ENDBRANCH  11  13
ENDBRANCH  10  11
ENDBRANCH   9  10
ENDBRANCH   1   9
TORSDOF 8
ENDMDL
MODEL 3
REMARK VINA RESULT:      -4.6      1.525      2.299
REMARK  8 active torsions:
REMARK  status: ('A' for Active; 'I' for Inactive)
REMARK    1  A    between atoms: O_2  and  C_3 
REMARK    2  A    between atoms: C_3  and  C_5 
REMARK    3  A    between atoms: C_5  and  C_6 
REMARK    4  A    between atoms: C_5  and  O_8 
REMARK    5  A    between atoms: C_6  and  O_7 
REMARK    6  A    between atoms: O_8  and  C_9 
REMARK    7  A    between atoms: C_9  and  C_10 
REMARK    8  A    between atoms: C_10  and  O_11 
ROOT
ATOM      1  C   UNL d   1     146.203 133.194  99.845  0.00  0.00     0.244 C 
ENDROOT
BRANCH   1   2
ATOM      2  C   UNL d   1     146.244 134.005  98.550  0.00  0.00     0.289 C 
ATOM      3  O   UNL d   1     145.504 133.814  97.592  0.00  0.00    -0.262 OA
BRANCH   2   4
ATOM      4  O   UNL d   1     147.230 134.944  98.602  0.00  0.00    -0.324 OA
ATOM      5  C   UNL d   1     147.494 135.580  97.349  0.00  0.00     0.213 C 
ENDBRANCH   2   4
ENDBRANCH   1   2
BRANCH   1   6
ATOM      6  C   UNL d   1     147.160 133.833 100.852  0.00  0.00     0.206 C 
BRANCH   6   7
ATOM      7  O   UNL d   1     146.580 135.024 101.389  0.00  0.00    -0.398 OA
ATOM      8  H   UNL d   1     146.315 135.559 100.616  0.00  0.00     0.209 HD
ENDBRANCH   6   7
ENDBRANCH   1   6
BRANCH   1   9
ATOM      9  O   UNL d   1     144.895 133.215 100.442  0.00  0.00    -0.371 OA
BRANCH   9  10
ATOM     10  C   UNL d   1     144.689 132.149 101.381  0.00  0.00     0.200 C 
BRANCH  10  11
ATOM     11  C   UNL d   1     144.118 132.745 102.672  0.00  0.00     0.138 C 
ATOM     12  C   UNL d   1     143.275 133.979 102.392  0.00  0.00     0.041 C 
BRANCH  11  13
ATOM     13  O   UNL d   1     145.185 133.141 103.539  0.00  0.00    -0.394 OA
ATOM     14  H   UNL d   1     144.788 133.527 104.348  0.00  0.00     0.210 HD
ENDBRANCH  11  13
ENDBRANCH  10  11
ENDBRANCH   9  10
ENDBRANCH   1   9
TORSDOF 8
ENDMDL
MODEL 4
REMARK VINA RESULT:      -4.5      1.751      3.953
REMARK  8 active torsions:
REMARK  status: ('A' for Active; 'I' for Inactive)
REMARK    1  A    between atoms: O_2  and  C_3 
REMARK    2  A    between atoms: C_3  and  C_5 
REMARK    3  A    between atoms: C_5  and  C_6 
REMARK    4  A    between atoms: C_5  and  O_8 
REMARK    5  A    between atoms: C_6  and  O_7 
REMARK    6  A    between atoms: O_8  and  C_9 
REMARK    7  A    between atoms: C_9  and  C_10 
REMARK    8  A    between atoms: C_10  and  O_11 
ROOT
ATOM      1  C   UNL d   1     146.195 132.558 100.442  0.00  0.00     0.244 C 
ENDROOT
BRANCH   1   2
ATOM      2  C   UNL d   1     145.702 133.721 101.302  0.00  0.00     0.289 C 
ATOM      3  O   UNL d   1     144.584 134.219 101.216  0.00  0.00    -0.262 OA
BRANCH   2   4
ATOM      4  O   UNL d   1     146.682 134.142 102.150  0.00  0.00    -0.324 OA
ATOM      5  C   UNL d   1     147.824 134.695 101.492  0.00  0.00     0.213 C 
ENDBRANCH   2   4
ENDBRANCH   1   2
BRANCH   1   6
ATOM      6  C   UNL d   1     145.617 131.258 101.002  0.00  0.00     0.206 C 
BRANCH   6   7
ATOM      7  O   UNL d   1     145.287 131.425 102.383  0.00  0.00    -0.398 OA
ATOM      8  H   UNL d   1     146.116 131.701 102.819  0.00  0.00     0.209 HD
ENDBRANCH   6   7
ENDBRANCH   1   6
BRANCH   1   9
ATOM      9  O   UNL d   1     145.733 132.669  99.085  0.00  0.00    -0.371 OA
BRANCH   9  10
ATOM     10  C   UNL d   1     146.674 133.327  98.223  0.00  0.00     0.200 C 
BRANCH  10  11
ATOM     11  C   UNL d   1     145.922 134.378  97.399  0.00  0.00     0.138 C 
ATOM     12  C   UNL d   1     146.838 135.516  96.977  0.00  0.00     0.041 C 
BRANCH  11  13
ATOM     13  O   UNL d   1     144.865 134.943  98.180  0.00  0.00    -0.394 OA
ATOM     14  H   UNL d   1     144.639 134.303  98.888  0.00  0.00     0.210 HD
ENDBRANCH  11  13
ENDBRANCH  10  11
ENDBRANCH   9  10
ENDBRANCH   1   9
TORSDOF 8
ENDMDL
MODEL 5
REMARK VINA RESULT:      -4.5      1.837      3.259
REMARK  8 active torsions:
REMARK  status: ('A' for Active; 'I' for Inactive)
REMARK    1  A    between atoms: O_2  and  C_3 
REMARK    2  A    between atoms: C_3  and  C_5 
REMARK    3  A    between atoms: C_5  and  C_6 
REMARK    4  A    between atoms: C_5  and  O_8 
REMARK    5  A    between atoms: C_6  and  O_7 
REMARK    6  A    between atoms: O_8  and  C_9 
REMARK    7  A    between atoms: C_9  and  C_10 
REMARK    8  A    between atoms: C_10  and  O_11 
ROOT
ATOM      1  C   UNL d   1     146.863 133.196  98.546  0.00  0.00     0.244 C 
ENDROOT
BRANCH   1   2
ATOM      2  C   UNL d   1     146.659 133.565  97.078  0.00  0.00     0.289 C 
ATOM      3  O   UNL d   1     147.553 133.579  96.238  0.00  0.00    -0.262 OA
BRANCH   2   4
ATOM      4  O   UNL d   1     145.360 133.900  96.842  0.00  0.00    -0.324 OA
ATOM      5  C   UNL d   1     145.146 134.557  95.591  0.00  0.00     0.213 C 
ENDBRANCH   2   4
ENDBRANCH   1   2
BRANCH   1   6
ATOM      6  C   UNL d   1     147.303 134.447  99.308  0.00  0.00     0.206 C 
BRANCH   6   7
ATOM      7  O   UNL d   1     147.252 135.586  98.446  0.00  0.00    -0.398 OA
ATOM      8  H   UNL d   1     146.343 135.603  98.087  0.00  0.00     0.209 HD
ENDBRANCH   6   7
ENDBRANCH   1   6
BRANCH   1   9
ATOM      9  O   UNL d   1     145.640 132.747  99.154  0.00  0.00    -0.371 OA
BRANCH   9  10
ATOM     10  C   UNL d   1     145.507 133.162 100.522  0.00  0.00     0.200 C 
BRANCH  10  11
ATOM     11  C   UNL d   1     144.815 132.039 101.303  0.00  0.00     0.138 C 
ATOM     12  C   UNL d   1     144.129 132.569 102.553  0.00  0.00     0.041 C 
BRANCH  11  13
ATOM     13  O   UNL d   1     145.781 131.070 101.720  0.00  0.00    -0.394 OA
ATOM     14  H   UNL d   1     146.050 130.555 100.931  0.00  0.00     0.210 HD
ENDBRANCH  11  13
ENDBRANCH  10  11
ENDBRANCH   9  10
ENDBRANCH   1   9
TORSDOF 8
ENDMDL
MODEL 6
REMARK VINA RESULT:      -4.5      1.413      4.905
REMARK  8 active torsions:
REMARK  status: ('A' for Active; 'I' for Inactive)
REMARK    1  A    between atoms: O_2  and  C_3 
REMARK    2  A    between atoms: C_3  and  C_5 
REMARK    3  A    between atoms: C_5  and  C_6 
REMARK    4  A    between atoms: C_5  and  O_8 
REMARK    5  A    between atoms: C_6  and  O_7 
REMARK    6  A    between atoms: O_8  and  C_9 
REMARK    7  A    between atoms: C_9  and  C_10 
REMARK    8  A    between atoms: C_10  and  O_11 
ROOT
ATOM      1  C   UNL d   1     145.535 133.235  99.989  0.00  0.00     0.244 C 
ENDROOT
BRANCH   1   2
ATOM      2  C   UNL d   1     145.351 131.932 100.766  0.00  0.00     0.289 C 
ATOM      3  O   UNL d   1     145.077 130.854 100.252  0.00  0.00    -0.262 OA
BRANCH   2   4
ATOM      4  O   UNL d   1     145.506 132.144 102.103  0.00  0.00    -0.324 OA
ATOM      5  C   UNL d   1     144.279 132.343 102.808  0.00  0.00     0.213 C 
ENDBRANCH   2   4
ENDBRANCH   1   2
BRANCH   1   6
ATOM      6  C   UNL d   1     146.746 133.976 100.557  0.00  0.00     0.206 C 
BRANCH   6   7
ATOM      7  O   UNL d   1     146.315 134.987 101.471  0.00  0.00    -0.398 OA
ATOM      8  H   UNL d   1     145.662 135.523 100.981  0.00  0.00     0.209 HD
ENDBRANCH   6   7
ENDBRANCH   1   6
BRANCH   1   9
ATOM      9  O   UNL d   1     145.812 132.988  98.600  0.00  0.00    -0.371 OA
BRANCH   9  10
ATOM     10  C   UNL d   1     146.555 134.047  97.978  0.00  0.00     0.200 C 
BRANCH  10  11
ATOM     11  C   UNL d   1     146.370 133.940  96.460  0.00  0.00     0.138 C 
ATOM     12  C   UNL d   1     146.963 135.141  95.740  0.00  0.00     0.041 C 
BRANCH  11  13
ATOM     13  O   UNL d   1     144.976 133.893  96.141  0.00  0.00    -0.394 OA
ATOM     14  H   UNL d   1     144.752 134.713  95.653  0.00  0.00     0.210 HD
ENDBRANCH  11  13
ENDBRANCH  10  11
ENDBRANCH   9  10
ENDBRANCH   1   9
TORSDOF 8
ENDMDL
MODEL 7
REMARK VINA RESULT:      -4.4      1.740      2.089
REMARK  8 active torsions:
REMARK  status: ('A' for Active; 'I' for Inactive)
REMARK    1  A    between atoms: O_2  and  C_3 
REMARK    2  A    between atoms: C_3  and  C_5 
REMARK    3  A    between atoms: C_5  and  C_6 
REMARK    4  A    between atoms: C_5  and  O_8 
REMARK    5  A    between atoms: C_6  and  O_7 
REMARK    6  A    between atoms: O_8  and  C_9 
REMARK    7  A    between atoms: C_9  and  C_10 
REMARK    8  A    between atoms: C_10  and  O_11 
ROOT
ATOM      1  C   UNL d   1     145.822 132.601 100.127  0.00  0.00     0.244 C 
ENDROOT
BRANCH   1   2
ATOM      2  C   UNL d   1     146.659 133.466 101.068  0.00  0.00     0.289 C 
ATOM      3  O   UNL d   1     146.377 133.683 102.242  0.00  0.00    -0.262 OA
BRANCH   2   4
ATOM      4  O   UNL d   1     147.740 133.980 100.416  0.00  0.00    -0.324 OA
ATOM      5  C   UNL d   1     147.547 134.143  99.010  0.00  0.00     0.213 C 
ENDBRANCH   2   4
ENDBRANCH   1   2
BRANCH   1   6
ATOM      6  C   UNL d   1     146.055 131.131 100.479  0.00  0.00     0.206 C 
BRANCH   6   7
ATOM      7  O   UNL d   1     145.782 130.911 101.865  0.00  0.00    -0.398 OA
ATOM      8  H   UNL d   1     146.507 130.342 102.188  0.00  0.00     0.209 HD
ENDBRANCH   6   7
ENDBRANCH   1   6
BRANCH   1   9
ATOM      9  O   UNL d   1     144.416 132.850 100.290  0.00  0.00    -0.371 OA
BRANCH   9  10
ATOM     10  C   UNL d   1     144.049 134.208 100.000  0.00  0.00     0.200 C 
BRANCH  10  11
ATOM     11  C   UNL d   1     143.175 134.727 101.148  0.00  0.00     0.138 C 
ATOM     12  C   UNL d   1     141.998 135.538 100.630  0.00  0.00     0.041 C 
BRANCH  11  13
ATOM     13  O   UNL d   1     143.946 135.581 101.998  0.00  0.00    -0.394 OA
ATOM     14  H   UNL d   1     143.875 135.237 102.914  0.00  0.00     0.210 HD
ENDBRANCH  11  13
ENDBRANCH  10  11
ENDBRANCH   9  10
ENDBRANCH   1   9
TORSDOF 8
ENDMDL
MODEL 8
REMARK VINA RESULT:      -4.4     11.845     12.782
REMARK  8 active torsions:
REMARK  status: ('A' for Active; 'I' for Inactive)
REMARK    1  A    between atoms: O_2  and  C_3 
REMARK    2  A    between atoms: C_3  and  C_5 
REMARK    3  A    between atoms: C_5  and  C_6 
REMARK    4  A    between atoms: C_5  and  O_8 
REMARK    5  A    between atoms: C_6  and  O_7 
REMARK    6  A    between atoms: O_8  and  C_9 
REMARK    7  A    between atoms: C_9  and  C_10 
REMARK    8  A    between atoms: C_10  and  O_11 
ROOT
ATOM      1  C   UNL d   1     139.279 143.604  99.076  0.00  0.00     0.244 C 
ENDROOT
BRANCH   1   2
ATOM      2  C   UNL d   1     139.558 144.672  98.020  0.00  0.00     0.289 C 
ATOM      3  O   UNL d   1     139.312 145.865  98.161  0.00  0.00    -0.262 OA
BRANCH   2   4
ATOM      4  O   UNL d   1     140.090 144.112  96.898  0.00  0.00    -0.324 OA
ATOM      5  C   UNL d   1     139.660 142.770  96.658  0.00  0.00     0.213 C 
ENDBRANCH   2   4
ENDBRANCH   1   2
BRANCH   1   6
ATOM      6  C   UNL d   1     140.330 143.723 100.181  0.00  0.00     0.206 C 
BRANCH   6   7
ATOM      7  O   UNL d   1     140.736 145.087 100.324  0.00  0.00    -0.398 OA
ATOM      8  H   UNL d   1     139.968 145.620 100.039  0.00  0.00     0.209 HD
ENDBRANCH   6   7
ENDBRANCH   1   6
BRANCH   1   9
ATOM      9  O   UNL d   1     137.997 143.797  99.699  0.00  0.00    -0.371 OA
BRANCH   9  10
ATOM     10  C   UNL d   1     137.014 142.846  99.266  0.00  0.00     0.200 C 
BRANCH  10  11
ATOM     11  C   UNL d   1     136.716 141.894 100.431  0.00  0.00     0.138 C 
ATOM     12  C   UNL d   1     137.195 142.468 101.755  0.00  0.00     0.041 C 
BRANCH  11  13
ATOM     13  O   UNL d   1     137.397 140.652 100.229  0.00  0.00    -0.394 OA
ATOM     14  H   UNL d   1     136.724 139.975 100.002  0.00  0.00     0.210 HD
ENDBRANCH  11  13
ENDBRANCH  10  11
ENDBRANCH   9  10
ENDBRANCH   1   9
TORSDOF 8
ENDMDL
MODEL 9
REMARK VINA RESULT:      -4.2     12.169     13.200
REMARK  8 active torsions:
REMARK  status: ('A' for Active; 'I' for Inactive)
REMARK    1  A    between atoms: O_2  and  C_3 
REMARK    2  A    between atoms: C_3  and  C_5 
REMARK    3  A    between atoms: C_5  and  C_6 
REMARK    4  A    between atoms: C_5  and  O_8 
REMARK    5  A    between atoms: C_6  and  O_7 
REMARK    6  A    between atoms: O_8  and  C_9 
REMARK    7  A    between atoms: C_9  and  C_10 
REMARK    8  A    between atoms: C_10  and  O_11 
ROOT
ATOM      1  C   UNL d   1     138.968 143.647  99.792  0.00  0.00     0.244 C 
ENDROOT
BRANCH   1   2
ATOM      2  C   UNL d   1     138.054 143.029 100.851  0.00  0.00     0.289 C 
ATOM      3  O   UNL d   1     138.112 143.286 102.048  0.00  0.00    -0.262 OA
BRANCH   2   4
ATOM      4  O   UNL d   1     137.193 142.139 100.282  0.00  0.00    -0.324 OA
ATOM      5  C   UNL d   1     135.825 142.553 100.312  0.00  0.00     0.213 C 
ENDBRANCH   2   4
ENDBRANCH   1   2
BRANCH   1   6
ATOM      6  C   UNL d   1     140.388 143.717 100.355  0.00  0.00     0.206 C 
BRANCH   6   7
ATOM      7  O   UNL d   1     140.824 145.078 100.411  0.00  0.00    -0.398 OA
ATOM      8  H   UNL d   1     140.842 145.385  99.484  0.00  0.00     0.209 HD
ENDBRANCH   6   7
ENDBRANCH   1   6
BRANCH   1   9
ATOM      9  O   UNL d   1     139.029 142.835  98.607  0.00  0.00    -0.371 OA
BRANCH   9  10
ATOM     10  C   UNL d   1     138.708 143.562  97.411  0.00  0.00     0.200 C 
BRANCH  10  11
ATOM     11  C   UNL d   1     137.578 142.823  96.685  0.00  0.00     0.138 C 
ATOM     12  C   UNL d   1     136.272 143.599  96.751  0.00  0.00     0.041 C 
BRANCH  11  13
ATOM     13  O   UNL d   1     137.354 141.551  97.301  0.00  0.00    -0.394 OA
ATOM     14  H   UNL d   1     136.902 141.708  98.157  0.00  0.00     0.210 HD
ENDBRANCH  11  13
ENDBRANCH  10  11
ENDBRANCH   9  10
ENDBRANCH   1   9
TORSDOF 8
ENDMDL
