../results/processed/lowest_conf/7XP5/docked/s1.pdbqt
 OpenBabel07252416053D

 14 13  0  0  1  0  0  0  0  0999 V2000
  145.3710  132.0530  100.7070 C   0  0  1  0  0  3  0  0  0  0  0  0
  145.9750  133.2220   99.9300 C   0  0  0  0  0  0  0  0  0  0  0  0
  146.6110  134.1370  100.4420 O   0  0  0  0  0  0  0  0  0  0  0  0
  145.6850  133.1190   98.6030 O   0  0  0  0  0  0  0  0  0  0  0  0
  146.4000  134.0410   97.7770 C   0  0  0  0  0  1  0  0  0  0  0  0
  146.1590  130.7860  100.3740 C   0  0  0  0  0  2  0  0  0  0  0  0
  147.4820  131.1300   99.9540 O   0  0  0  0  0  0  0  0  0  0  0  0
  147.4090  131.3390   99.0020 H   0  0  0  0  0  0  0  0  0  0  0  0
  145.4800  132.2490  102.1270 O   0  0  0  0  0  0  0  0  0  0  0  0
  144.2050  132.3810  102.7750 C   0  0  0  0  0  2  0  0  0  0  0  0
  143.9460  133.8700  103.0340 C   0  0  2  0  0  3  0  0  0  0  0  0
  143.0480  134.4740  101.9660 C   0  0  0  0  0  1  0  0  0  0  0  0
  145.1830  134.5890  103.0130 O   0  0  0  0  0  0  0  0  0  0  0  0
  145.7590  134.1780  102.3350 H   0  0  0  0  0  0  0  0  0  0  0  0
  1  6  1  6  0  0  0
  1  9  1  0  0  0  0
  2  3  2  0  0  0  0
  2  1  1  0  0  0  0
  4  2  1  0  0  0  0
  5  4  1  0  0  0  0
  7  6  1  0  0  0  0
  8  7  1  0  0  0  0
  9 10  1  0  0  0  0
 10 11  1  0  0  0  0
 11 12  1  6  0  0  0
 13 11  1  0  0  0  0
 14 13  1  0  0  0  0
M  END
>  <MODEL>
1

>  <REMARK>
 VINA RESULT:      -4.7      0.000      0.000
  8 active torsions:
  status: ('A' for Active; 'I' for Inactive)
    1  A    between atoms: O_2  and  C_3 
    2  A    between atoms: C_3  and  C_5 
    3  A    between atoms: C_5  and  C_6 
    4  A    between atoms: C_5  and  O_8 
    5  A    between atoms: C_6  and  O_7 
    6  A    between atoms: O_8  and  C_9 
    7  A    between atoms: C_9  and  C_10 
    8  A    between atoms: C_10  and  O_11 

>  <TORSDO>
F 8

$$$$
../results/processed/lowest_conf/7XP5/docked/s1.pdbqt
 OpenBabel07252416053D

 14 13  0  0  1  0  0  0  0  0999 V2000
  145.2650  132.9940  100.7940 C   0  0  1  0  0  3  0  0  0  0  0  0
  143.9530  133.6060  101.2830 C   0  0  0  0  0  0  0  0  0  0  0  0
  143.5750  133.5900  102.4490 O   0  0  0  0  0  0  0  0  0  0  0  0
  143.2560  134.1420  100.2420 O   0  0  0  0  0  0  0  0  0  0  0  0
  142.3590  135.1880  100.6200 C   0  0  0  0  0  1  0  0  0  0  0  0
  145.3680  131.5670  101.3310 C   0  0  0  0  0  2  0  0  0  0  0  0
  145.2250  130.6300  100.2600 O   0  0  0  0  0  0  0  0  0  0  0  0
  145.2240  129.7490  100.6810 H   0  0  0  0  0  0  0  0  0  0  0  0
  145.3060  132.9040   99.3600 O   0  0  0  0  0  0  0  0  0  0  0  0
  146.4070  133.6220   98.7830 C   0  0  0  0  0  2  0  0  0  0  0  0
  145.8860  134.4220   97.5830 C   0  0  2  0  0  3  0  0  0  0  0  0
  146.9230  135.4140   97.0810 C   0  0  0  0  0  1  0  0  0  0  0  0
  144.7260  135.1680   97.9630 O   0  0  0  0  0  0  0  0  0  0  0  0
  144.8170  136.0730   97.5950 H   0  0  0  0  0  0  0  0  0  0  0  0
  1  2  1  0  0  0  0
  1  6  1  1  0  0  0
  2  3  2  0  0  0  0
  4  5  1  0  0  0  0
  4  2  1  0  0  0  0
  7  8  1  0  0  0  0
  7  6  1  0  0  0  0
  9  1  1  0  0  0  0
 10  9  1  0  0  0  0
 11 12  1  1  0  0  0
 11 13  1  0  0  0  0
 11 10  1  0  0  0  0
 14 13  1  0  0  0  0
M  END
>  <MODEL>
2

>  <REMARK>
 VINA RESULT:      -4.6      1.730      4.016
  8 active torsions:
  status: ('A' for Active; 'I' for Inactive)
    1  A    between atoms: O_2  and  C_3 
    2  A    between atoms: C_3  and  C_5 
    3  A    between atoms: C_5  and  C_6 
    4  A    between atoms: C_5  and  O_8 
    5  A    between atoms: C_6  and  O_7 
    6  A    between atoms: O_8  and  C_9 
    7  A    between atoms: C_9  and  C_10 
    8  A    between atoms: C_10  and  O_11 

>  <TORSDO>
F 8

$$$$
../results/processed/lowest_conf/7XP5/docked/s1.pdbqt
 OpenBabel07252416053D

 14 13  0  0  1  0  0  0  0  0999 V2000
  146.2030  133.1940   99.8450 C   0  0  1  0  0  3  0  0  0  0  0  0
  146.2440  134.0050   98.5500 C   0  0  0  0  0  0  0  0  0  0  0  0
  145.5040  133.8140   97.5920 O   0  0  0  0  0  0  0  0  0  0  0  0
  147.2300  134.9440   98.6020 O   0  0  0  0  0  0  0  0  0  0  0  0
  147.4940  135.5800   97.3490 C   0  0  0  0  0  1  0  0  0  0  0  0
  147.1600  133.8330  100.8520 C   0  0  0  0  0  2  0  0  0  0  0  0
  146.5800  135.0240  101.3890 O   0  0  0  0  0  0  0  0  0  0  0  0
  146.3150  135.5590  100.6160 H   0  0  0  0  0  0  0  0  0  0  0  0
  144.8950  133.2150  100.4420 O   0  0  0  0  0  0  0  0  0  0  0  0
  144.6890  132.1490  101.3810 C   0  0  0  0  0  2  0  0  0  0  0  0
  144.1180  132.7450  102.6720 C   0  0  2  0  0  3  0  0  0  0  0  0
  143.2750  133.9790  102.3920 C   0  0  0  0  0  1  0  0  0  0  0  0
  145.1850  133.1410  103.5390 O   0  0  0  0  0  0  0  0  0  0  0  0
  144.7880  133.5270  104.3480 H   0  0  0  0  0  0  0  0  0  0  0  0
  1  9  1  0  0  0  0
  1  6  1  1  0  0  0
  2  4  1  0  0  0  0
  2  1  1  0  0  0  0
  3  2  2  0  0  0  0
  5  4  1  0  0  0  0
  6  7  1  0  0  0  0
  8  7  1  0  0  0  0
  9 10  1  0  0  0  0
 10 11  1  0  0  0  0
 11 12  1  6  0  0  0
 11 13  1  0  0  0  0
 13 14  1  0  0  0  0
M  END
>  <MODEL>
3

>  <REMARK>
 VINA RESULT:      -4.6      1.525      2.299
  8 active torsions:
  status: ('A' for Active; 'I' for Inactive)
    1  A    between atoms: O_2  and  C_3 
    2  A    between atoms: C_3  and  C_5 
    3  A    between atoms: C_5  and  C_6 
    4  A    between atoms: C_5  and  O_8 
    5  A    between atoms: C_6  and  O_7 
    6  A    between atoms: O_8  and  C_9 
    7  A    between atoms: C_9  and  C_10 
    8  A    between atoms: C_10  and  O_11 

>  <TORSDO>
F 8

$$$$
../results/processed/lowest_conf/7XP5/docked/s1.pdbqt
 OpenBabel07252416053D

 14 13  0  0  1  0  0  0  0  0999 V2000
  146.1950  132.5580  100.4420 C   0  0  1  0  0  3  0  0  0  0  0  0
  145.7020  133.7210  101.3020 C   0  0  0  0  0  0  0  0  0  0  0  0
  144.5840  134.2190  101.2160 O   0  0  0  0  0  0  0  0  0  0  0  0
  146.6820  134.1420  102.1500 O   0  0  0  0  0  0  0  0  0  0  0  0
  147.8240  134.6950  101.4920 C   0  0  0  0  0  1  0  0  0  0  0  0
  145.6170  131.2580  101.0020 C   0  0  0  0  0  2  0  0  0  0  0  0
  145.2870  131.4250  102.3830 O   0  0  0  0  0  0  0  0  0  0  0  0
  146.1160  131.7010  102.8190 H   0  0  0  0  0  0  0  0  0  0  0  0
  145.7330  132.6690   99.0850 O   0  0  0  0  0  0  0  0  0  0  0  0
  146.6740  133.3270   98.2230 C   0  0  0  0  0  2  0  0  0  0  0  0
  145.9220  134.3780   97.3990 C   0  0  2  0  0  3  0  0  0  0  0  0
  146.8380  135.5160   96.9770 C   0  0  0  0  0  1  0  0  0  0  0  0
  144.8650  134.9430   98.1800 O   0  0  0  0  0  0  0  0  0  0  0  0
  144.6390  134.3030   98.8880 H   0  0  0  0  0  0  0  0  0  0  0  0
  1  6  1  1  0  0  0
  1  2  1  0  0  0  0
  2  4  1  0  0  0  0
  3  2  2  0  0  0  0
  5  4  1  0  0  0  0
  6  7  1  0  0  0  0
  7  8  1  0  0  0  0
  9  1  1  0  0  0  0
 10  9  1  0  0  0  0
 11 12  1  1  0  0  0
 11 13  1  0  0  0  0
 11 10  1  0  0  0  0
 13 14  1  0  0  0  0
M  END
>  <MODEL>
4

>  <REMARK>
 VINA RESULT:      -4.5      1.751      3.953
  8 active torsions:
  status: ('A' for Active; 'I' for Inactive)
    1  A    between atoms: O_2  and  C_3 
    2  A    between atoms: C_3  and  C_5 
    3  A    between atoms: C_5  and  C_6 
    4  A    between atoms: C_5  and  O_8 
    5  A    between atoms: C_6  and  O_7 
    6  A    between atoms: O_8  and  C_9 
    7  A    between atoms: C_9  and  C_10 
    8  A    between atoms: C_10  and  O_11 

>  <TORSDO>
F 8

$$$$
../results/processed/lowest_conf/7XP5/docked/s1.pdbqt
 OpenBabel07252416053D

 14 13  0  0  1  0  0  0  0  0999 V2000
  146.8630  133.1960   98.5460 C   0  0  1  0  0  3  0  0  0  0  0  0
  146.6590  133.5650   97.0780 C   0  0  0  0  0  0  0  0  0  0  0  0
  147.5530  133.5790   96.2380 O   0  0  0  0  0  0  0  0  0  0  0  0
  145.3600  133.9000   96.8420 O   0  0  0  0  0  0  0  0  0  0  0  0
  145.1460  134.5570   95.5910 C   0  0  0  0  0  1  0  0  0  0  0  0
  147.3030  134.4470   99.3080 C   0  0  0  0  0  2  0  0  0  0  0  0
  147.2520  135.5860   98.4460 O   0  0  0  0  0  0  0  0  0  0  0  0
  146.3430  135.6030   98.0870 H   0  0  0  0  0  0  0  0  0  0  0  0
  145.6400  132.7470   99.1540 O   0  0  0  0  0  0  0  0  0  0  0  0
  145.5070  133.1620  100.5220 C   0  0  0  0  0  2  0  0  0  0  0  0
  144.8150  132.0390  101.3030 C   0  0  2  0  0  3  0  0  0  0  0  0
  144.1290  132.5690  102.5530 C   0  0  0  0  0  1  0  0  0  0  0  0
  145.7810  131.0700  101.7200 O   0  0  0  0  0  0  0  0  0  0  0  0
  146.0500  130.5550  100.9310 H   0  0  0  0  0  0  0  0  0  0  0  0
  1  9  1  0  0  0  0
  1  6  1  1  0  0  0
  2  1  1  0  0  0  0
  3  2  2  0  0  0  0
  4  2  1  0  0  0  0
  5  4  1  0  0  0  0
  7  6  1  0  0  0  0
  8  7  1  0  0  0  0
  9 10  1  0  0  0  0
 10 11  1  0  0  0  0
 11 13  1  0  0  0  0
 11 12  1  1  0  0  0
 14 13  1  0  0  0  0
M  END
>  <MODEL>
5

>  <REMARK>
 VINA RESULT:      -4.5      1.837      3.259
  8 active torsions:
  status: ('A' for Active; 'I' for Inactive)
    1  A    between atoms: O_2  and  C_3 
    2  A    between atoms: C_3  and  C_5 
    3  A    between atoms: C_5  and  C_6 
    4  A    between atoms: C_5  and  O_8 
    5  A    between atoms: C_6  and  O_7 
    6  A    between atoms: O_8  and  C_9 
    7  A    between atoms: C_9  and  C_10 
    8  A    between atoms: C_10  and  O_11 

>  <TORSDO>
F 8

$$$$
../results/processed/lowest_conf/7XP5/docked/s1.pdbqt
 OpenBabel07252416053D

 14 13  0  0  1  0  0  0  0  0999 V2000
  145.5350  133.2350   99.9890 C   0  0  1  0  0  3  0  0  0  0  0  0
  145.3510  131.9320  100.7660 C   0  0  0  0  0  0  0  0  0  0  0  0
  145.0770  130.8540  100.2520 O   0  0  0  0  0  0  0  0  0  0  0  0
  145.5060  132.1440  102.1030 O   0  0  0  0  0  0  0  0  0  0  0  0
  144.2790  132.3430  102.8080 C   0  0  0  0  0  1  0  0  0  0  0  0
  146.7460  133.9760  100.5570 C   0  0  0  0  0  2  0  0  0  0  0  0
  146.3150  134.9870  101.4710 O   0  0  0  0  0  0  0  0  0  0  0  0
  145.6620  135.5230  100.9810 H   0  0  0  0  0  0  0  0  0  0  0  0
  145.8120  132.9880   98.6000 O   0  0  0  0  0  0  0  0  0  0  0  0
  146.5550  134.0470   97.9780 C   0  0  0  0  0  2  0  0  0  0  0  0
  146.3700  133.9400   96.4600 C   0  0  2  0  0  3  0  0  0  0  0  0
  146.9630  135.1410   95.7400 C   0  0  0  0  0  1  0  0  0  0  0  0
  144.9760  133.8930   96.1410 O   0  0  0  0  0  0  0  0  0  0  0  0
  144.7520  134.7130   95.6530 H   0  0  0  0  0  0  0  0  0  0  0  0
  1  6  1  1  0  0  0
  1  2  1  0  0  0  0
  2  4  1  0  0  0  0
  3  2  2  0  0  0  0
  4  5  1  0  0  0  0
  6  7  1  0  0  0  0
  8  7  1  0  0  0  0
  9  1  1  0  0  0  0
 10  9  1  0  0  0  0
 11 12  1  6  0  0  0
 11 10  1  0  0  0  0
 13 11  1  0  0  0  0
 14 13  1  0  0  0  0
M  END
>  <MODEL>
6

>  <REMARK>
 VINA RESULT:      -4.5      1.413      4.905
  8 active torsions:
  status: ('A' for Active; 'I' for Inactive)
    1  A    between atoms: O_2  and  C_3 
    2  A    between atoms: C_3  and  C_5 
    3  A    between atoms: C_5  and  C_6 
    4  A    between atoms: C_5  and  O_8 
    5  A    between atoms: C_6  and  O_7 
    6  A    between atoms: O_8  and  C_9 
    7  A    between atoms: C_9  and  C_10 
    8  A    between atoms: C_10  and  O_11 

>  <TORSDO>
F 8

$$$$
../results/processed/lowest_conf/7XP5/docked/s1.pdbqt
 OpenBabel07252416053D

 14 13  0  0  1  0  0  0  0  0999 V2000
  145.8220  132.6010  100.1270 C   0  0  1  0  0  3  0  0  0  0  0  0
  146.6590  133.4660  101.0680 C   0  0  0  0  0  0  0  0  0  0  0  0
  146.3770  133.6830  102.2420 O   0  0  0  0  0  0  0  0  0  0  0  0
  147.7400  133.9800  100.4160 O   0  0  0  0  0  0  0  0  0  0  0  0
  147.5470  134.1430   99.0100 C   0  0  0  0  0  1  0  0  0  0  0  0
  146.0550  131.1310  100.4790 C   0  0  0  0  0  2  0  0  0  0  0  0
  145.7820  130.9110  101.8650 O   0  0  0  0  0  0  0  0  0  0  0  0
  146.5070  130.3420  102.1880 H   0  0  0  0  0  0  0  0  0  0  0  0
  144.4160  132.8500  100.2900 O   0  0  0  0  0  0  0  0  0  0  0  0
  144.0490  134.2080  100.0000 C   0  0  0  0  0  2  0  0  0  0  0  0
  143.1750  134.7270  101.1480 C   0  0  2  0  0  3  0  0  0  0  0  0
  141.9980  135.5380  100.6300 C   0  0  0  0  0  1  0  0  0  0  0  0
  143.9460  135.5810  101.9980 O   0  0  0  0  0  0  0  0  0  0  0  0
  143.8750  135.2370  102.9140 H   0  0  0  0  0  0  0  0  0  0  0  0
  1  9  1  0  0  0  0
  1  6  1  1  0  0  0
  1  2  1  0  0  0  0
  2  3  2  0  0  0  0
  4  2  1  0  0  0  0
  5  4  1  0  0  0  0
  6  7  1  0  0  0  0
  7  8  1  0  0  0  0
 10  9  1  0  0  0  0
 10 11  1  0  0  0  0
 11 12  1  6  0  0  0
 11 13  1  0  0  0  0
 13 14  1  0  0  0  0
M  END
>  <MODEL>
7

>  <REMARK>
 VINA RESULT:      -4.4      1.740      2.089
  8 active torsions:
  status: ('A' for Active; 'I' for Inactive)
    1  A    between atoms: O_2  and  C_3 
    2  A    between atoms: C_3  and  C_5 
    3  A    between atoms: C_5  and  C_6 
    4  A    between atoms: C_5  and  O_8 
    5  A    between atoms: C_6  and  O_7 
    6  A    between atoms: O_8  and  C_9 
    7  A    between atoms: C_9  and  C_10 
    8  A    between atoms: C_10  and  O_11 

>  <TORSDO>
F 8

$$$$
../results/processed/lowest_conf/7XP5/docked/s1.pdbqt
 OpenBabel07252416053D

 14 13  0  0  1  0  0  0  0  0999 V2000
  139.2790  143.6040   99.0760 C   0  0  1  0  0  3  0  0  0  0  0  0
  139.5580  144.6720   98.0200 C   0  0  0  0  0  0  0  0  0  0  0  0
  139.3120  145.8650   98.1610 O   0  0  0  0  0  0  0  0  0  0  0  0
  140.0900  144.1120   96.8980 O   0  0  0  0  0  0  0  0  0  0  0  0
  139.6600  142.7700   96.6580 C   0  0  0  0  0  1  0  0  0  0  0  0
  140.3300  143.7230  100.1810 C   0  0  0  0  0  2  0  0  0  0  0  0
  140.7360  145.0870  100.3240 O   0  0  0  0  0  0  0  0  0  0  0  0
  139.9680  145.6200  100.0390 H   0  0  0  0  0  0  0  0  0  0  0  0
  137.9970  143.7970   99.6990 O   0  0  0  0  0  0  0  0  0  0  0  0
  137.0140  142.8460   99.2660 C   0  0  0  0  0  2  0  0  0  0  0  0
  136.7160  141.8940  100.4310 C   0  0  2  0  0  3  0  0  0  0  0  0
  137.1950  142.4680  101.7550 C   0  0  0  0  0  1  0  0  0  0  0  0
  137.3970  140.6520  100.2290 O   0  0  0  0  0  0  0  0  0  0  0  0
  136.7240  139.9750  100.0020 H   0  0  0  0  0  0  0  0  0  0  0  0
  1  9  1  0  0  0  0
  1  6  1  1  0  0  0
  2  3  2  0  0  0  0
  2  1  1  0  0  0  0
  4  2  1  0  0  0  0
  5  4  1  0  0  0  0
  6  7  1  0  0  0  0
  8  7  1  0  0  0  0
 10  9  1  0  0  0  0
 10 11  1  0  0  0  0
 11 12  1  1  0  0  0
 13 11  1  0  0  0  0
 14 13  1  0  0  0  0
M  END
>  <MODEL>
8

>  <REMARK>
 VINA RESULT:      -4.4     11.845     12.782
  8 active torsions:
  status: ('A' for Active; 'I' for Inactive)
    1  A    between atoms: O_2  and  C_3 
    2  A    between atoms: C_3  and  C_5 
    3  A    between atoms: C_5  and  C_6 
    4  A    between atoms: C_5  and  O_8 
    5  A    between atoms: C_6  and  O_7 
    6  A    between atoms: O_8  and  C_9 
    7  A    between atoms: C_9  and  C_10 
    8  A    between atoms: C_10  and  O_11 

>  <TORSDO>
F 8

$$$$
../results/processed/lowest_conf/7XP5/docked/s1.pdbqt
 OpenBabel07252416053D

 14 13  0  0  1  0  0  0  0  0999 V2000
  138.9680  143.6470   99.7920 C   0  0  1  0  0  3  0  0  0  0  0  0
  138.0540  143.0290  100.8510 C   0  0  0  0  0  0  0  0  0  0  0  0
  138.1120  143.2860  102.0480 O   0  0  0  0  0  0  0  0  0  0  0  0
  137.1930  142.1390  100.2820 O   0  0  0  0  0  0  0  0  0  0  0  0
  135.8250  142.5530  100.3120 C   0  0  0  0  0  1  0  0  0  0  0  0
  140.3880  143.7170  100.3550 C   0  0  0  0  0  2  0  0  0  0  0  0
  140.8240  145.0780  100.4110 O   0  0  0  0  0  0  0  0  0  0  0  0
  140.8420  145.3850   99.4840 H   0  0  0  0  0  0  0  0  0  0  0  0
  139.0290  142.8350   98.6070 O   0  0  0  0  0  0  0  0  0  0  0  0
  138.7080  143.5620   97.4110 C   0  0  0  0  0  2  0  0  0  0  0  0
  137.5780  142.8230   96.6850 C   0  0  2  0  0  3  0  0  0  0  0  0
  136.2720  143.5990   96.7510 C   0  0  0  0  0  1  0  0  0  0  0  0
  137.3540  141.5510   97.3010 O   0  0  0  0  0  0  0  0  0  0  0  0
  136.9020  141.7080   98.1570 H   0  0  0  0  0  0  0  0  0  0  0  0
  1  6  1  1  0  0  0
  1  2  1  0  0  0  0
  2  3  2  0  0  0  0
  4  5  1  0  0  0  0
  4  2  1  0  0  0  0
  6  7  1  0  0  0  0
  8  7  1  0  0  0  0
  9  1  1  0  0  0  0
 10  9  1  0  0  0  0
 11 12  1  1  0  0  0
 11 13  1  0  0  0  0
 11 10  1  0  0  0  0
 13 14  1  0  0  0  0
M  END
>  <MODEL>
9

>  <REMARK>
 VINA RESULT:      -4.2     12.169     13.200
  8 active torsions:
  status: ('A' for Active; 'I' for Inactive)
    1  A    between atoms: O_2  and  C_3 
    2  A    between atoms: C_3  and  C_5 
    3  A    between atoms: C_5  and  C_6 
    4  A    between atoms: C_5  and  O_8 
    5  A    between atoms: C_6  and  O_7 
    6  A    between atoms: O_8  and  C_9 
    7  A    between atoms: C_9  and  C_10 
    8  A    between atoms: C_10  and  O_11 

>  <TORSDO>
F 8

$$$$
