../results/processed/lowest_conf/7XP5/docked/s1c.pdbqt
 OpenBabel07252416063D

 31 32  0  0  1  0  0  0  0  0999 V2000
  146.4220  133.5900   98.5420 O   0  0  0  0  0  0  0  0  0  0  0  0
  145.5510  133.5130   99.6840 C   0  0  2  0  0  3  0  0  0  0  0  0
  144.4450  134.3970   99.5010 O   0  0  0  0  0  0  0  0  0  0  0  0
  143.5320  134.3520  100.6010 C   0  0  1  0  0  3  0  0  0  0  0  0
  144.2100  134.7730  101.9220 C   0  0  2  0  0  3  0  0  0  0  0  0
  145.4920  133.9610  102.1570 C   0  0  2  0  0  3  0  0  0  0  0  0
  146.3770  133.9480  100.9150 C   0  0  2  0  0  3  0  0  0  0  0  0
  142.3540  135.2770  100.2630 C   0  0  0  0  0  2  0  0  0  0  0  0
  142.6480  136.6310  100.5970 O   0  0  0  0  0  0  0  0  0  0  0  0
  141.8040  137.0350  100.8750 H   0  0  0  0  0  0  0  0  0  0  0  0
  143.3440  134.5530  103.0470 O   0  0  0  0  0  0  0  0  0  0  0  0
  142.8580  135.3980  103.1840 H   0  0  0  0  0  0  0  0  0  0  0  0
  145.1340  132.6190  102.5180 O   0  0  0  0  0  0  0  0  0  0  0  0
  145.8630  132.3280  103.1080 H   0  0  0  0  0  0  0  0  0  0  0  0
  146.9180  135.2680  100.7090 O   0  0  0  0  0  0  0  0  0  0  0  0
  146.8010  135.4520   99.7570 H   0  0  0  0  0  0  0  0  0  0  0  0
  146.5800  134.9570   98.0730 C   0  0  1  0  0  3  0  0  0  0  0  0
  148.0870  135.2450   97.9390 C   0  0  1  0  0  3  0  0  0  0  0  0
  148.7020  134.4220   96.9280 O   0  0  0  0  0  0  0  0  0  0  0  0
  148.1030  134.4530   95.6360 C   0  0  1  0  0  3  0  0  0  0  0  0
  146.5900  134.1750   95.6650 C   0  0  2  0  0  3  0  0  0  0  0  0
  145.8980  135.0700   96.7000 C   0  0  1  0  0  3  0  0  0  0  0  0
  148.4050  136.7370   97.7530 C   0  0  0  0  0  2  0  0  0  0  0  0
  148.4940  137.3910   99.0150 O   0  0  0  0  0  0  0  0  0  0  0  0
  147.5970  137.4020   99.3920 H   0  0  0  0  0  0  0  0  0  0  0  0
  148.3800  135.6940   95.0090 O   0  0  0  0  0  0  0  0  0  0  0  0
  149.3490  135.7730   95.0140 H   0  0  0  0  0  0  0  0  0  0  0  0
  146.3280  132.7930   95.9810 O   0  0  0  0  0  0  0  0  0  0  0  0
  146.1460  132.3490   95.1260 H   0  0  0  0  0  0  0  0  0  0  0  0
  144.5160  134.6940   96.8180 O   0  0  0  0  0  0  0  0  0  0  0  0
  144.2200  135.0600   97.6760 H   0  0  0  0  0  0  0  0  0  0  0  0
  2  1  1  6  0  0  0
  2  7  1  0  0  0  0
  3  2  1  0  0  0  0
  3  4  1  0  0  0  0
  4  8  1  6  0  0  0
  4  5  1  0  0  0  0
  5  6  1  0  0  0  0
  5 11  1  1  0  0  0
  6 13  1  6  0  0  0
  7 15  1  6  0  0  0
  7  6  1  0  0  0  0
  8  9  1  0  0  0  0
  9 10  1  0  0  0  0
 11 12  1  0  0  0  0
 13 14  1  0  0  0  0
 16 15  1  0  0  0  0
 17  1  1  6  0  0  0
 18 23  1  6  0  0  0
 18 17  1  0  0  0  0
 19 18  1  0  0  0  0
 20 26  1  1  0  0  0
 20 21  1  0  0  0  0
 20 19  1  0  0  0  0
 21 28  1  1  0  0  0
 21 22  1  0  0  0  0
 22 30  1  1  0  0  0
 22 17  1  0  0  0  0
 23 24  1  0  0  0  0
 24 25  1  0  0  0  0
 26 27  1  0  0  0  0
 29 28  1  0  0  0  0
 30 31  1  0  0  0  0
M  END
>  <MODEL>
1

>  <REMARK>
 VINA RESULT:      -7.7      0.000      0.000
  12 active torsions:
  status: ('A' for Active; 'I' for Inactive)
    1  A    between atoms: O_1  and  C_2 
    2  A    between atoms: C_2  and  C_3 
    3  A    between atoms: C_5  and  O_6 
    4  A    between atoms: O_6  and  C_7 
    5  A    between atoms: C_8  and  C_9 
    6  A    between atoms: C_9  and  O_10 
    7  A    between atoms: C_12  and  O_13 
    8  A    between atoms: C_14  and  O_15 
    9  A    between atoms: C_16  and  O_17 
   10  A    between atoms: C_18  and  O_19 
   11  A    between atoms: C_20  and  O_21 
   12  A    between atoms: C_22  and  O_23 

>  <TORSDO>
F 12

$$$$
../results/processed/lowest_conf/7XP5/docked/s1c.pdbqt
 OpenBabel07252416063D

 31 32  0  0  1  0  0  0  0  0999 V2000
  145.5770  133.2300   98.8380 O   0  0  0  0  0  0  0  0  0  0  0  0
  146.4240  133.8170   97.8340 C   0  0  2  0  0  3  0  0  0  0  0  0
  147.2740  134.7920   98.4380 O   0  0  0  0  0  0  0  0  0  0  0  0
  148.1540  135.4000   97.4890 C   0  0  1  0  0  3  0  0  0  0  0  0
  147.3750  136.1330   96.3770 C   0  0  2  0  0  3  0  0  0  0  0  0
  146.3360  135.2000   95.7370 C   0  0  2  0  0  3  0  0  0  0  0  0
  145.5000  134.4910   96.7980 C   0  0  2  0  0  3  0  0  0  0  0  0
  149.0660  136.3680   98.2570 C   0  0  0  0  0  2  0  0  0  0  0  0
  148.6000  137.7120   98.1500 O   0  0  0  0  0  0  0  0  0  0  0  0
  147.8620  137.6960   97.5140 H   0  0  0  0  0  0  0  0  0  0  0  0
  148.2540  136.5850   95.3340 O   0  0  0  0  0  0  0  0  0  0  0  0
  149.1340  136.7080   95.7550 H   0  0  0  0  0  0  0  0  0  0  0  0
  147.0150  134.2340   94.9220 O   0  0  0  0  0  0  0  0  0  0  0  0
  147.6830  134.7620   94.4330 H   0  0  0  0  0  0  0  0  0  0  0  0
  144.6460  135.4550   97.4450 O   0  0  0  0  0  0  0  0  0  0  0  0
  145.2470  136.1360   97.8030 H   0  0  0  0  0  0  0  0  0  0  0  0
  145.8140  133.8080  100.1500 C   0  0  1  0  0  3  0  0  0  0  0  0
  144.4490  134.0210  100.8320 C   0  0  1  0  0  3  0  0  0  0  0  0
  143.7750  132.7710  101.0820 O   0  0  0  0  0  0  0  0  0  0  0  0
  144.5100  131.7890  101.8040 C   0  0  1  0  0  3  0  0  0  0  0  0
  145.8960  131.5050  101.1980 C   0  0  2  0  0  3  0  0  0  0  0  0
  146.6590  132.8140  100.9630 C   0  0  1  0  0  3  0  0  0  0  0  0
  144.5280  134.9050  102.0870 C   0  0  0  0  0  2  0  0  0  0  0  0
  143.3250  134.8100  102.8430 O   0  0  0  0  0  0  0  0  0  0  0  0
  143.5750  134.8680  103.7820 H   0  0  0  0  0  0  0  0  0  0  0  0
  144.6200  132.1750  103.1640 O   0  0  0  0  0  0  0  0  0  0  0  0
  145.5730  132.2920  103.3210 H   0  0  0  0  0  0  0  0  0  0  0  0
  145.7730  130.7950   99.9490 O   0  0  0  0  0  0  0  0  0  0  0  0
  146.4400  131.1880   99.3470 H   0  0  0  0  0  0  0  0  0  0  0  0
  147.8830  132.5410  100.2630 O   0  0  0  0  0  0  0  0  0  0  0  0
  148.0900  131.6040  100.4580 H   0  0  0  0  0  0  0  0  0  0  0  0
  2  3  1  0  0  0  0
  2  1  1  1  0  0  0
  4  8  1  1  0  0  0
  4  3  1  0  0  0  0
  5 11  1  6  0  0  0
  5  4  1  0  0  0  0
  6 13  1  1  0  0  0
  6  5  1  0  0  0  0
  6  7  1  0  0  0  0
  7 15  1  1  0  0  0
  7  2  1  0  0  0  0
  9  8  1  0  0  0  0
 10  9  1  0  0  0  0
 11 12  1  0  0  0  0
 14 13  1  0  0  0  0
 15 16  1  0  0  0  0
 17  1  1  6  0  0  0
 17 18  1  0  0  0  0
 17 22  1  0  0  0  0
 18 19  1  0  0  0  0
 18 23  1  1  0  0  0
 19 20  1  0  0  0  0
 20 26  1  1  0  0  0
 21 28  1  6  0  0  0
 21 20  1  0  0  0  0
 22 30  1  6  0  0  0
 22 21  1  0  0  0  0
 23 24  1  0  0  0  0
 24 25  1  0  0  0  0
 26 27  1  0  0  0  0
 29 28  1  0  0  0  0
 30 31  1  0  0  0  0
M  END
>  <MODEL>
2

>  <REMARK>
 VINA RESULT:      -7.4      1.521      6.010
  12 active torsions:
  status: ('A' for Active; 'I' for Inactive)
    1  A    between atoms: O_1  and  C_2 
    2  A    between atoms: C_2  and  C_3 
    3  A    between atoms: C_5  and  O_6 
    4  A    between atoms: O_6  and  C_7 
    5  A    between atoms: C_8  and  C_9 
    6  A    between atoms: C_9  and  O_10 
    7  A    between atoms: C_12  and  O_13 
    8  A    between atoms: C_14  and  O_15 
    9  A    between atoms: C_16  and  O_17 
   10  A    between atoms: C_18  and  O_19 
   11  A    between atoms: C_20  and  O_21 
   12  A    between atoms: C_22  and  O_23 

>  <TORSDO>
F 12

$$$$
../results/processed/lowest_conf/7XP5/docked/s1c.pdbqt
 OpenBabel07252416063D

 31 32  0  0  1  0  0  0  0  0999 V2000
  149.0750  132.8090   96.4570 O   0  0  0  0  0  0  0  0  0  0  0  0
  149.1820  131.3760   96.5180 C   0  0  2  0  0  3  0  0  0  0  0  0
  149.6050  130.9850   97.8250 O   0  0  0  0  0  0  0  0  0  0  0  0
  149.7140  129.5640   97.9520 C   0  0  1  0  0  3  0  0  0  0  0  0
  150.7500  128.9820   96.9690 C   0  0  2  0  0  3  0  0  0  0  0  0
  150.4580  129.4460   95.5340 C   0  0  2  0  0  3  0  0  0  0  0  0
  150.2380  130.9540   95.4730 C   0  0  2  0  0  3  0  0  0  0  0  0
  150.0980  129.2590   99.4080 C   0  0  0  0  0  2  0  0  0  0  0  0
  150.1130  130.4450  100.1990 O   0  0  0  0  0  0  0  0  0  0  0  0
  149.8720  130.1740  101.1040 H   0  0  0  0  0  0  0  0  0  0  0  0
  150.7250  127.5450   96.9740 O   0  0  0  0  0  0  0  0  0  0  0  0
  151.4170  127.2600   96.3350 H   0  0  0  0  0  0  0  0  0  0  0  0
  149.2930  128.7610   95.0500 O   0  0  0  0  0  0  0  0  0  0  0  0
  149.6460  128.1260   94.3910 H   0  0  0  0  0  0  0  0  0  0  0  0
  151.4880  131.6230   95.7320 O   0  0  0  0  0  0  0  0  0  0  0  0
  152.1690  131.0840   95.2840 H   0  0  0  0  0  0  0  0  0  0  0  0
  148.0520  133.2360   95.5170 C   0  0  1  0  0  3  0  0  0  0  0  0
  146.9110  133.8920   96.3180 C   0  0  1  0  0  3  0  0  0  0  0  0
  147.3450  135.0960   96.9800 O   0  0  0  0  0  0  0  0  0  0  0  0
  147.9680  136.0800   96.1600 C   0  0  1  0  0  3  0  0  0  0  0  0
  149.1270  135.5190   95.3170 C   0  0  2  0  0  3  0  0  0  0  0  0
  148.6820  134.2610   94.5610 C   0  0  1  0  0  3  0  0  0  0  0  0
  145.6340  134.1070   95.4900 C   0  0  0  0  0  2  0  0  0  0  0  0
  145.1230  132.8620   95.0260 O   0  0  0  0  0  0  0  0  0  0  0  0
  144.3610  132.6400   95.5900 H   0  0  0  0  0  0  0  0  0  0  0  0
  146.9960  136.7030   95.3380 O   0  0  0  0  0  0  0  0  0  0  0  0
  146.7930  137.5480   95.7750 H   0  0  0  0  0  0  0  0  0  0  0  0
  150.2580  135.1980   96.1500 O   0  0  0  0  0  0  0  0  0  0  0  0
  150.5960  134.3360   95.8290 H   0  0  0  0  0  0  0  0  0  0  0  0
  149.8120  133.6700   93.9000 O   0  0  0  0  0  0  0  0  0  0  0  0
  150.0850  134.3200   93.2220 H   0  0  0  0  0  0  0  0  0  0  0  0
  2  1  1  1  0  0  0
  2  3  1  0  0  0  0
  3  4  1  0  0  0  0
  4  8  1  1  0  0  0
  5 11  1  6  0  0  0
  5  4  1  0  0  0  0
  6 13  1  1  0  0  0
  6  5  1  0  0  0  0
  7  6  1  0  0  0  0
  7 15  1  1  0  0  0
  7  2  1  0  0  0  0
  8  9  1  0  0  0  0
  9 10  1  0  0  0  0
 12 11  1  0  0  0  0
 14 13  1  0  0  0  0
 16 15  1  0  0  0  0
 17 18  1  0  0  0  0
 17  1  1  1  0  0  0
 18 23  1  6  0  0  0
 18 19  1  0  0  0  0
 20 26  1  6  0  0  0
 20 19  1  0  0  0  0
 21 28  1  1  0  0  0
 21 20  1  0  0  0  0
 22 30  1  1  0  0  0
 22 21  1  0  0  0  0
 22 17  1  0  0  0  0
 24 23  1  0  0  0  0
 24 25  1  0  0  0  0
 26 27  1  0  0  0  0
 29 28  1  0  0  0  0
 31 30  1  0  0  0  0
M  END
>  <MODEL>
3

>  <REMARK>
 VINA RESULT:      -7.2      4.049      6.738
  12 active torsions:
  status: ('A' for Active; 'I' for Inactive)
    1  A    between atoms: O_1  and  C_2 
    2  A    between atoms: C_2  and  C_3 
    3  A    between atoms: C_5  and  O_6 
    4  A    between atoms: O_6  and  C_7 
    5  A    between atoms: C_8  and  C_9 
    6  A    between atoms: C_9  and  O_10 
    7  A    between atoms: C_12  and  O_13 
    8  A    between atoms: C_14  and  O_15 
    9  A    between atoms: C_16  and  O_17 
   10  A    between atoms: C_18  and  O_19 
   11  A    between atoms: C_20  and  O_21 
   12  A    between atoms: C_22  and  O_23 

>  <TORSDO>
F 12

$$$$
../results/processed/lowest_conf/7XP5/docked/s1c.pdbqt
 OpenBabel07252416063D

 31 32  0  0  1  0  0  0  0  0999 V2000
  146.3940  134.3800   97.8330 O   0  0  0  0  0  0  0  0  0  0  0  0
  145.8550  133.8380   99.0510 C   0  0  2  0  0  3  0  0  0  0  0  0
  144.6530  134.5310   99.3900 O   0  0  0  0  0  0  0  0  0  0  0  0
  144.0590  134.0230  100.5880 C   0  0  1  0  0  3  0  0  0  0  0  0
  145.0030  134.1710  101.7990 C   0  0  2  0  0  3  0  0  0  0  0  0
  146.3790  133.5630  101.4940 C   0  0  2  0  0  3  0  0  0  0  0  0
  146.9160  134.0500  100.1520 C   0  0  2  0  0  3  0  0  0  0  0  0
  142.7450  134.7850  100.8120 C   0  0  0  0  0  2  0  0  0  0  0  0
  142.7750  136.0630  100.1810 O   0  0  0  0  0  0  0  0  0  0  0  0
  142.0490  136.5810  100.5750 H   0  0  0  0  0  0  0  0  0  0  0  0
  144.4770  133.5000  102.9560 O   0  0  0  0  0  0  0  0  0  0  0  0
  144.5010  132.5390  102.7460 H   0  0  0  0  0  0  0  0  0  0  0  0
  146.2650  132.1320  101.4850 O   0  0  0  0  0  0  0  0  0  0  0  0
  145.3340  131.9650  101.7490 H   0  0  0  0  0  0  0  0  0  0  0  0
  147.2490  135.4490  100.2590 O   0  0  0  0  0  0  0  0  0  0  0  0
  148.1350  135.4740  100.6690 H   0  0  0  0  0  0  0  0  0  0  0  0
  147.7590  133.9380   97.6010 C   0  0  1  0  0  3  0  0  0  0  0  0
  147.7110  132.6860   96.7060 C   0  0  1  0  0  3  0  0  0  0  0  0
  147.1800  132.9820   95.3990 O   0  0  0  0  0  0  0  0  0  0  0  0
  147.8080  134.0420   94.6870 C   0  0  1  0  0  3  0  0  0  0  0  0
  147.9050  135.3440   95.5010 C   0  0  2  0  0  3  0  0  0  0  0  0
  148.5110  135.0700   96.8830 C   0  0  1  0  0  3  0  0  0  0  0  0
  149.0510  131.9360   96.6380 C   0  0  0  0  0  2  0  0  0  0  0  0
  149.0330  130.9740   95.5890 O   0  0  0  0  0  0  0  0  0  0  0  0
  149.8930  130.5170   95.6080 H   0  0  0  0  0  0  0  0  0  0  0  0
  149.0880  133.6270   94.2380 O   0  0  0  0  0  0  0  0  0  0  0  0
  149.6910  133.8100   94.9800 H   0  0  0  0  0  0  0  0  0  0  0  0
  146.6050  135.9450   95.6630 O   0  0  0  0  0  0  0  0  0  0  0  0
  146.4950  136.5620   94.9080 H   0  0  0  0  0  0  0  0  0  0  0  0
  148.4560  136.2640   97.6800 O   0  0  0  0  0  0  0  0  0  0  0  0
  147.5070  136.4980   97.7330 H   0  0  0  0  0  0  0  0  0  0  0  0
  2  1  1  6  0  0  0
  2  3  1  0  0  0  0
  2  7  1  0  0  0  0
  3  4  1  0  0  0  0
  4  8  1  1  0  0  0
  4  5  1  0  0  0  0
  5 11  1  1  0  0  0
  6 13  1  6  0  0  0
  6  5  1  0  0  0  0
  7 15  1  1  0  0  0
  7  6  1  0  0  0  0
  9 10  1  0  0  0  0
  9  8  1  0  0  0  0
 12 11  1  0  0  0  0
 13 14  1  0  0  0  0
 15 16  1  0  0  0  0
 17  1  1  6  0  0  0
 18 23  1  6  0  0  0
 18 17  1  0  0  0  0
 19 18  1  0  0  0  0
 20 26  1  1  0  0  0
 20 19  1  0  0  0  0
 20 21  1  0  0  0  0
 21 28  1  1  0  0  0
 21 22  1  0  0  0  0
 22 17  1  0  0  0  0
 22 30  1  1  0  0  0
 24 25  1  0  0  0  0
 24 23  1  0  0  0  0
 26 27  1  0  0  0  0
 29 28  1  0  0  0  0
 30 31  1  0  0  0  0
M  END
>  <MODEL>
4

>  <REMARK>
 VINA RESULT:      -7.2      1.494      2.578
  12 active torsions:
  status: ('A' for Active; 'I' for Inactive)
    1  A    between atoms: O_1  and  C_2 
    2  A    between atoms: C_2  and  C_3 
    3  A    between atoms: C_5  and  O_6 
    4  A    between atoms: O_6  and  C_7 
    5  A    between atoms: C_8  and  C_9 
    6  A    between atoms: C_9  and  O_10 
    7  A    between atoms: C_12  and  O_13 
    8  A    between atoms: C_14  and  O_15 
    9  A    between atoms: C_16  and  O_17 
   10  A    between atoms: C_18  and  O_19 
   11  A    between atoms: C_20  and  O_21 
   12  A    between atoms: C_22  and  O_23 

>  <TORSDO>
F 12

$$$$
../results/processed/lowest_conf/7XP5/docked/s1c.pdbqt
 OpenBabel07252416063D

 31 32  0  0  1  0  0  0  0  0999 V2000
  135.5260  142.8110   98.5660 O   0  0  0  0  0  0  0  0  0  0  0  0
  136.6290  143.4090   99.2700 C   0  0  2  0  0  3  0  0  0  0  0  0
  137.5930  143.8840   98.3300 O   0  0  0  0  0  0  0  0  0  0  0  0
  138.7090  144.5060   98.9730 C   0  0  1  0  0  3  0  0  0  0  0  0
  139.4540  143.5230   99.8990 C   0  0  2  0  0  3  0  0  0  0  0  0
  138.4790  142.8540  100.8790 C   0  0  2  0  0  3  0  0  0  0  0  0
  137.2530  142.3080  100.1550 C   0  0  2  0  0  3  0  0  0  0  0  0
  139.6360  145.0430   97.8730 C   0  0  0  0  0  2  0  0  0  0  0  0
  140.5250  146.0350   98.3840 O   0  0  0  0  0  0  0  0  0  0  0  0
  141.2220  145.5550   98.8680 H   0  0  0  0  0  0  0  0  0  0  0  0
  140.4590  144.1950  100.6760 O   0  0  0  0  0  0  0  0  0  0  0  0
  140.7710  143.5400  101.3400 H   0  0  0  0  0  0  0  0  0  0  0  0
  138.0780  143.8150  101.8660 O   0  0  0  0  0  0  0  0  0  0  0  0
  137.2380  143.4540  102.2230 H   0  0  0  0  0  0  0  0  0  0  0  0
  137.6460  141.1830   99.3450 O   0  0  0  0  0  0  0  0  0  0  0  0
  137.5060  140.3960   99.9070 H   0  0  0  0  0  0  0  0  0  0  0  0
  135.5210  143.1760   97.1590 C   0  0  1  0  0  3  0  0  0  0  0  0
  135.7410  141.8940   96.3320 C   0  0  1  0  0  3  0  0  0  0  0  0
  134.6510  140.9630   96.4880 O   0  0  0  0  0  0  0  0  0  0  0  0
  133.3460  141.4680   96.2300 C   0  0  1  0  0  3  0  0  0  0  0  0
  133.0290  142.7540   97.0140 C   0  0  2  0  0  3  0  0  0  0  0  0
  134.1490  143.7860   96.8300 C   0  0  1  0  0  3  0  0  0  0  0  0
  136.0670  142.1720   94.8560 C   0  0  0  0  0  2  0  0  0  0  0  0
  136.0500  140.9640   94.1040 O   0  0  0  0  0  0  0  0  0  0  0  0
  135.2960  141.0210   93.4910 H   0  0  0  0  0  0  0  0  0  0  0  0
  133.1750  141.6670   94.8370 O   0  0  0  0  0  0  0  0  0  0  0  0
  133.9280  141.2150   94.4190 H   0  0  0  0  0  0  0  0  0  0  0  0
  132.8680  142.4730   98.4180 O   0  0  0  0  0  0  0  0  0  0  0  0
  133.7230  142.7000   98.8400 H   0  0  0  0  0  0  0  0  0  0  0  0
  133.9100  144.9160   97.6830 O   0  0  0  0  0  0  0  0  0  0  0  0
  133.8580  144.5510   98.5900 H   0  0  0  0  0  0  0  0  0  0  0  0
  2  1  1  6  0  0  0
  2  7  1  0  0  0  0
  3  4  1  0  0  0  0
  3  2  1  0  0  0  0
  4  8  1  6  0  0  0
  4  5  1  0  0  0  0
  5 11  1  1  0  0  0
  5  6  1  0  0  0  0
  6 13  1  1  0  0  0
  7 15  1  6  0  0  0
  7  6  1  0  0  0  0
  8  9  1  0  0  0  0
  9 10  1  0  0  0  0
 11 12  1  0  0  0  0
 13 14  1  0  0  0  0
 15 16  1  0  0  0  0
 17  1  1  1  0  0  0
 18 23  1  6  0  0  0
 18 19  1  0  0  0  0
 18 17  1  0  0  0  0
 20 26  1  6  0  0  0
 20 19  1  0  0  0  0
 20 21  1  0  0  0  0
 21 28  1  1  0  0  0
 22 21  1  0  0  0  0
 22 17  1  0  0  0  0
 22 30  1  1  0  0  0
 24 23  1  0  0  0  0
 25 24  1  0  0  0  0
 27 26  1  0  0  0  0
 28 29  1  0  0  0  0
 30 31  1  0  0  0  0
M  END
>  <MODEL>
5

>  <REMARK>
 VINA RESULT:      -7.0     11.166     13.458
  12 active torsions:
  status: ('A' for Active; 'I' for Inactive)
    1  A    between atoms: O_1  and  C_2 
    2  A    between atoms: C_2  and  C_3 
    3  A    between atoms: C_5  and  O_6 
    4  A    between atoms: O_6  and  C_7 
    5  A    between atoms: C_8  and  C_9 
    6  A    between atoms: C_9  and  O_10 
    7  A    between atoms: C_12  and  O_13 
    8  A    between atoms: C_14  and  O_15 
    9  A    between atoms: C_16  and  O_17 
   10  A    between atoms: C_18  and  O_19 
   11  A    between atoms: C_20  and  O_21 
   12  A    between atoms: C_22  and  O_23 

>  <TORSDO>
F 12

$$$$
../results/processed/lowest_conf/7XP5/docked/s1c.pdbqt
 OpenBabel07252416063D

 31 32  0  0  1  0  0  0  0  0999 V2000
  135.9410  144.1250   97.5490 O   0  0  0  0  0  0  0  0  0  0  0  0
  137.0270  143.4900   98.2470 C   0  0  2  0  0  3  0  0  0  0  0  0
  136.7170  143.4110   99.6390 O   0  0  0  0  0  0  0  0  0  0  0  0
  137.7560  142.7710  100.3850 C   0  0  1  0  0  3  0  0  0  0  0  0
  139.0890  143.5410  100.2800 C   0  0  2  0  0  3  0  0  0  0  0  0
  139.4580  143.7920   98.8110 C   0  0  2  0  0  3  0  0  0  0  0  0
  138.2790  144.3680   98.0340 C   0  0  2  0  0  3  0  0  0  0  0  0
  137.2850  142.6740  101.8440 C   0  0  0  0  0  2  0  0  0  0  0  0
  138.1360  143.4190  102.7120 O   0  0  0  0  0  0  0  0  0  0  0  0
  137.6200  143.5880  103.5220 H   0  0  0  0  0  0  0  0  0  0  0  0
  140.1670  142.8030  100.8790 O   0  0  0  0  0  0  0  0  0  0  0  0
  140.7870  143.4750  101.2420 H   0  0  0  0  0  0  0  0  0  0  0  0
  139.8770  142.5540   98.2180 O   0  0  0  0  0  0  0  0  0  0  0  0
  139.2770  142.4420   97.4500 H   0  0  0  0  0  0  0  0  0  0  0  0
  138.0270  145.7120   98.4900 O   0  0  0  0  0  0  0  0  0  0  0  0
  137.6770  145.6180   99.3960 H   0  0  0  0  0  0  0  0  0  0  0  0
  135.4520  143.3080   96.4510 C   0  0  1  0  0  3  0  0  0  0  0  0
  135.1660  141.8960   96.9960 C   0  0  1  0  0  3  0  0  0  0  0  0
  134.1010  141.9030   97.9670 O   0  0  0  0  0  0  0  0  0  0  0  0
  132.8770  142.5050   97.5600 C   0  0  1  0  0  3  0  0  0  0  0  0
  133.0590  143.9260   96.9980 C   0  0  2  0  0  3  0  0  0  0  0  0
  134.1550  143.9430   95.9260 C   0  0  1  0  0  3  0  0  0  0  0  0
  134.9420  140.8520   95.8900 C   0  0  0  0  0  2  0  0  0  0  0  0
  134.6180  139.5860   96.4550 O   0  0  0  0  0  0  0  0  0  0  0  0
  133.7780  139.6970   96.9360 H   0  0  0  0  0  0  0  0  0  0  0  0
  132.2190  141.6690   96.6240 O   0  0  0  0  0  0  0  0  0  0  0  0
  132.9180  141.3560   96.0230 H   0  0  0  0  0  0  0  0  0  0  0  0
  133.4060  144.8510   98.0470 O   0  0  0  0  0  0  0  0  0  0  0  0
  133.3230  144.3530   98.8880 H   0  0  0  0  0  0  0  0  0  0  0  0
  134.4130  145.2970   95.5200 O   0  0  0  0  0  0  0  0  0  0  0  0
  133.5410  145.6640   95.2700 H   0  0  0  0  0  0  0  0  0  0  0  0
  2  1  1  6  0  0  0
  2  3  1  0  0  0  0
  3  4  1  0  0  0  0
  4  8  1  1  0  0  0
  5  4  1  0  0  0  0
  5 11  1  6  0  0  0
  6 13  1  6  0  0  0
  6  5  1  0  0  0  0
  7  2  1  0  0  0  0
  7 15  1  1  0  0  0
  7  6  1  0  0  0  0
  8  9  1  0  0  0  0
  9 10  1  0  0  0  0
 11 12  1  0  0  0  0
 14 13  1  0  0  0  0
 15 16  1  0  0  0  0
 17 18  1  0  0  0  0
 17  1  1  1  0  0  0
 18 23  1  6  0  0  0
 18 19  1  0  0  0  0
 20 26  1  6  0  0  0
 20 19  1  0  0  0  0
 21 20  1  0  0  0  0
 21 28  1  1  0  0  0
 22 30  1  1  0  0  0
 22 17  1  0  0  0  0
 22 21  1  0  0  0  0
 23 24  1  0  0  0  0
 24 25  1  0  0  0  0
 27 26  1  0  0  0  0
 28 29  1  0  0  0  0
 31 30  1  0  0  0  0
M  END
>  <MODEL>
6

>  <REMARK>
 VINA RESULT:      -7.0     10.924     13.772
  12 active torsions:
  status: ('A' for Active; 'I' for Inactive)
    1  A    between atoms: O_1  and  C_2 
    2  A    between atoms: C_2  and  C_3 
    3  A    between atoms: C_5  and  O_6 
    4  A    between atoms: O_6  and  C_7 
    5  A    between atoms: C_8  and  C_9 
    6  A    between atoms: C_9  and  O_10 
    7  A    between atoms: C_12  and  O_13 
    8  A    between atoms: C_14  and  O_15 
    9  A    between atoms: C_16  and  O_17 
   10  A    between atoms: C_18  and  O_19 
   11  A    between atoms: C_20  and  O_21 
   12  A    between atoms: C_22  and  O_23 

>  <TORSDO>
F 12

$$$$
../results/processed/lowest_conf/7XP5/docked/s1c.pdbqt
 OpenBabel07252416063D

 31 32  0  0  1  0  0  0  0  0999 V2000
  145.9870  133.4860   98.6640 O   0  0  0  0  0  0  0  0  0  0  0  0
  145.7740  134.4930   97.6590 C   0  0  2  0  0  3  0  0  0  0  0  0
  144.4060  134.4750   97.2500 O   0  0  0  0  0  0  0  0  0  0  0  0
  144.1280  135.4700   96.2600 C   0  0  1  0  0  3  0  0  0  0  0  0
  144.9650  135.2520   94.9830 C   0  0  2  0  0  3  0  0  0  0  0  0
  146.4580  135.1310   95.3250 C   0  0  2  0  0  3  0  0  0  0  0  0
  146.6870  134.1420   96.4640 C   0  0  2  0  0  3  0  0  0  0  0  0
  142.6240  135.4100   95.9540 C   0  0  0  0  0  2  0  0  0  0  0  0
  142.2370  136.4500   95.0580 O   0  0  0  0  0  0  0  0  0  0  0  0
  143.0400  136.9750   94.8850 H   0  0  0  0  0  0  0  0  0  0  0  0
  144.8170  136.3490   94.0670 O   0  0  0  0  0  0  0  0  0  0  0  0
  145.5050  136.2200   93.3760 H   0  0  0  0  0  0  0  0  0  0  0  0
  146.9580  136.4250   95.6920 O   0  0  0  0  0  0  0  0  0  0  0  0
  147.8530  136.2420   96.0520 H   0  0  0  0  0  0  0  0  0  0  0  0
  146.4020  132.8100   95.9950 O   0  0  0  0  0  0  0  0  0  0  0  0
  147.1640  132.5620   95.4370 H   0  0  0  0  0  0  0  0  0  0  0  0
  145.9370  134.0420  100.0060 C   0  0  1  0  0  3  0  0  0  0  0  0
  144.4630  134.0760  100.4540 C   0  0  1  0  0  3  0  0  0  0  0  0
  143.9080  132.7510  100.5700 O   0  0  0  0  0  0  0  0  0  0  0  0
  144.6240  131.8340  101.3890 C   0  0  1  0  0  3  0  0  0  0  0  0
  146.1140  131.7280  101.0180 C   0  0  2  0  0  3  0  0  0  0  0  0
  146.7470  133.1230  100.9330 C   0  0  1  0  0  3  0  0  0  0  0  0
  144.2320  134.9200  101.7170 C   0  0  0  0  0  2  0  0  0  0  0  0
  142.9150  134.7180  102.2200 O   0  0  0  0  0  0  0  0  0  0  0  0
  142.3740  134.3980  101.4780 H   0  0  0  0  0  0  0  0  0  0  0  0
  144.4640  132.1840  102.7530 O   0  0  0  0  0  0  0  0  0  0  0  0
  144.3180  131.3410  103.2180 H   0  0  0  0  0  0  0  0  0  0  0  0
  146.2820  131.0530   99.7560 O   0  0  0  0  0  0  0  0  0  0  0  0
  146.1210  131.7280   99.0630 H   0  0  0  0  0  0  0  0  0  0  0  0
  148.0930  133.0140  100.4430 O   0  0  0  0  0  0  0  0  0  0  0  0
  148.1000  133.4970   99.5920 H   0  0  0  0  0  0  0  0  0  0  0  0
  2  1  1  1  0  0  0
  3  2  1  0  0  0  0
  4  8  1  6  0  0  0
  4  3  1  0  0  0  0
  5 11  1  6  0  0  0
  5  6  1  0  0  0  0
  5  4  1  0  0  0  0
  6 13  1  1  0  0  0
  6  7  1  0  0  0  0
  7 15  1  6  0  0  0
  7  2  1  0  0  0  0
  9  8  1  0  0  0  0
 10  9  1  0  0  0  0
 12 11  1  0  0  0  0
 13 14  1  0  0  0  0
 16 15  1  0  0  0  0
 17  1  1  6  0  0  0
 17 18  1  0  0  0  0
 17 22  1  0  0  0  0
 18 19  1  0  0  0  0
 18 23  1  1  0  0  0
 19 20  1  0  0  0  0
 20 26  1  1  0  0  0
 21 28  1  6  0  0  0
 21 20  1  0  0  0  0
 22 30  1  6  0  0  0
 22 21  1  0  0  0  0
 23 24  1  0  0  0  0
 25 24  1  0  0  0  0
 26 27  1  0  0  0  0
 29 28  1  0  0  0  0
 31 30  1  0  0  0  0
M  END
>  <MODEL>
7

>  <REMARK>
 VINA RESULT:      -6.9      1.867      5.786
  12 active torsions:
  status: ('A' for Active; 'I' for Inactive)
    1  A    between atoms: O_1  and  C_2 
    2  A    between atoms: C_2  and  C_3 
    3  A    between atoms: C_5  and  O_6 
    4  A    between atoms: O_6  and  C_7 
    5  A    between atoms: C_8  and  C_9 
    6  A    between atoms: C_9  and  O_10 
    7  A    between atoms: C_12  and  O_13 
    8  A    between atoms: C_14  and  O_15 
    9  A    between atoms: C_16  and  O_17 
   10  A    between atoms: C_18  and  O_19 
   11  A    between atoms: C_20  and  O_21 
   12  A    between atoms: C_22  and  O_23 

>  <TORSDO>
F 12

$$$$
../results/processed/lowest_conf/7XP5/docked/s1c.pdbqt
 OpenBabel07252416063D

 31 32  0  0  1  0  0  0  0  0999 V2000
  135.6510  142.8290   98.3150 O   0  0  0  0  0  0  0  0  0  0  0  0
  136.7280  143.4100   99.0720 C   0  0  2  0  0  3  0  0  0  0  0  0
  137.7350  143.8880   98.1800 O   0  0  0  0  0  0  0  0  0  0  0  0
  138.8270  144.4940   98.8770 C   0  0  1  0  0  3  0  0  0  0  0  0
  139.5250  143.4940   99.8220 C   0  0  2  0  0  3  0  0  0  0  0  0
  138.5040  142.8220  100.7510 C   0  0  2  0  0  3  0  0  0  0  0  0
  137.3050  142.2940   99.9700 C   0  0  2  0  0  3  0  0  0  0  0  0
  139.8040  145.0360   97.8240 C   0  0  0  0  0  2  0  0  0  0  0  0
  140.6680  146.0250   98.3800 O   0  0  0  0  0  0  0  0  0  0  0  0
  141.0370  146.5220   97.6270 H   0  0  0  0  0  0  0  0  0  0  0  0
  140.5000  144.1490  100.6490 O   0  0  0  0  0  0  0  0  0  0  0  0
  140.4380  143.7210  101.5320 H   0  0  0  0  0  0  0  0  0  0  0  0
  138.0680  143.7750  101.7320 O   0  0  0  0  0  0  0  0  0  0  0  0
  137.2300  144.1300  101.3640 H   0  0  0  0  0  0  0  0  0  0  0  0
  137.7240  141.1750   99.1640 O   0  0  0  0  0  0  0  0  0  0  0  0
  138.3550  140.6770   99.7190 H   0  0  0  0  0  0  0  0  0  0  0  0
  134.5740  143.7780   98.0900 C   0  0  1  0  0  3  0  0  0  0  0  0
  134.8350  144.4900   96.7490 C   0  0  1  0  0  3  0  0  0  0  0  0
  134.7740  143.5750   95.6370 O   0  0  0  0  0  0  0  0  0  0  0  0
  133.5920  142.7900   95.5280 C   0  0  1  0  0  3  0  0  0  0  0  0
  133.2450  142.0360   96.8230 C   0  0  2  0  0  3  0  0  0  0  0  0
  133.2550  142.9930   98.0220 C   0  0  1  0  0  3  0  0  0  0  0  0
  133.9510  145.7290   96.5380 C   0  0  0  0  0  2  0  0  0  0  0  0
  134.7430  146.9130   96.5250 O   0  0  0  0  0  0  0  0  0  0  0  0
  134.4570  147.4530   97.2820 H   0  0  0  0  0  0  0  0  0  0  0  0
  132.5110  143.6070   95.1100 O   0  0  0  0  0  0  0  0  0  0  0  0
  132.7810  143.9690   94.2480 H   0  0  0  0  0  0  0  0  0  0  0  0
  134.1820  140.9670   97.0610 O   0  0  0  0  0  0  0  0  0  0  0  0
  134.8100  140.9840   96.3080 H   0  0  0  0  0  0  0  0  0  0  0  0
  133.0760  142.2480   99.2360 O   0  0  0  0  0  0  0  0  0  0  0  0
  133.9790  142.0200   99.5370 H   0  0  0  0  0  0  0  0  0  0  0  0
  2  1  1  6  0  0  0
  2  7  1  0  0  0  0
  3  4  1  0  0  0  0
  3  2  1  0  0  0  0
  4  8  1  6  0  0  0
  4  5  1  0  0  0  0
  5 11  1  1  0  0  0
  5  6  1  0  0  0  0
  6 13  1  1  0  0  0
  7 15  1  6  0  0  0
  7  6  1  0  0  0  0
  8  9  1  0  0  0  0
 10  9  1  0  0  0  0
 11 12  1  0  0  0  0
 14 13  1  0  0  0  0
 15 16  1  0  0  0  0
 17  1  1  6  0  0  0
 18 23  1  6  0  0  0
 18 17  1  0  0  0  0
 19 18  1  0  0  0  0
 20 26  1  1  0  0  0
 20 19  1  0  0  0  0
 20 21  1  0  0  0  0
 21 28  1  1  0  0  0
 21 22  1  0  0  0  0
 22 17  1  0  0  0  0
 22 30  1  1  0  0  0
 24 23  1  0  0  0  0
 24 25  1  0  0  0  0
 27 26  1  0  0  0  0
 29 28  1  0  0  0  0
 30 31  1  0  0  0  0
M  END
>  <MODEL>
8

>  <REMARK>
 VINA RESULT:      -6.8     11.100     13.902
  12 active torsions:
  status: ('A' for Active; 'I' for Inactive)
    1  A    between atoms: O_1  and  C_2 
    2  A    between atoms: C_2  and  C_3 
    3  A    between atoms: C_5  and  O_6 
    4  A    between atoms: O_6  and  C_7 
    5  A    between atoms: C_8  and  C_9 
    6  A    between atoms: C_9  and  O_10 
    7  A    between atoms: C_12  and  O_13 
    8  A    between atoms: C_14  and  O_15 
    9  A    between atoms: C_16  and  O_17 
   10  A    between atoms: C_18  and  O_19 
   11  A    between atoms: C_20  and  O_21 
   12  A    between atoms: C_22  and  O_23 

>  <TORSDO>
F 12

$$$$
../results/processed/lowest_conf/7XP5/docked/s1c.pdbqt
 OpenBabel07252416063D

 31 32  0  0  1  0  0  0  0  0999 V2000
  146.3280  134.5890   98.5210 O   0  0  0  0  0  0  0  0  0  0  0  0
  145.4300  133.9930   99.4750 C   0  0  2  0  0  3  0  0  0  0  0  0
  144.2880  134.8330   99.6440 O   0  0  0  0  0  0  0  0  0  0  0  0
  143.3480  134.2830  100.5710 C   0  0  1  0  0  3  0  0  0  0  0  0
  143.9680  134.1060  101.9730 C   0  0  2  0  0  3  0  0  0  0  0  0
  145.2810  133.3150  101.8910 C   0  0  2  0  0  3  0  0  0  0  0  0
  146.1990  133.8740  100.8090 C   0  0  2  0  0  3  0  0  0  0  0  0
  142.1360  135.2240  100.6150 C   0  0  0  0  0  2  0  0  0  0  0  0
  142.5360  136.5880  100.4960 O   0  0  0  0  0  0  0  0  0  0  0  0
  141.7290  137.1220  100.6160 H   0  0  0  0  0  0  0  0  0  0  0  0
  143.0830  133.3900  102.8490 O   0  0  0  0  0  0  0  0  0  0  0  0
  143.4360  132.4730  102.9010 H   0  0  0  0  0  0  0  0  0  0  0  0
  144.9800  131.9390  101.6150 O   0  0  0  0  0  0  0  0  0  0  0  0
  145.4320  131.4460  102.3330 H   0  0  0  0  0  0  0  0  0  0  0  0
  146.6810  135.1670  101.2230 O   0  0  0  0  0  0  0  0  0  0  0  0
  146.6120  135.1710  102.1970 H   0  0  0  0  0  0  0  0  0  0  0  0
  146.3860  133.8290   97.2850 C   0  0  1  0  0  3  0  0  0  0  0  0
  145.9450  134.7530   96.1330 C   0  0  1  0  0  3  0  0  0  0  0  0
  146.8600  135.8510   95.9480 O   0  0  0  0  0  0  0  0  0  0  0  0
  148.2310  135.5100   95.7750 C   0  0  1  0  0  3  0  0  0  0  0  0
  148.7680  134.5850   96.8810 C   0  0  2  0  0  3  0  0  0  0  0  0
  147.8400  133.3790   97.0710 C   0  0  1  0  0  3  0  0  0  0  0  0
  145.6630  133.9990   94.8240 C   0  0  0  0  0  2  0  0  0  0  0  0
  144.9990  132.7670   95.0890 O   0  0  0  0  0  0  0  0  0  0  0  0
  144.0770  132.8720   94.7930 H   0  0  0  0  0  0  0  0  0  0  0  0
  148.4250  134.9360   94.4940 O   0  0  0  0  0  0  0  0  0  0  0  0
  149.1430  134.2900   94.6080 H   0  0  0  0  0  0  0  0  0  0  0  0
  148.8870  135.2940   98.1300 O   0  0  0  0  0  0  0  0  0  0  0  0
  149.4090  134.7130   98.7240 H   0  0  0  0  0  0  0  0  0  0  0  0
  148.2750  132.6080   98.2020 O   0  0  0  0  0  0  0  0  0  0  0  0
  147.5920  131.9180   98.3240 H   0  0  0  0  0  0  0  0  0  0  0  0
  2  1  1  6  0  0  0
  2  3  1  0  0  0  0
  2  7  1  0  0  0  0
  3  4  1  0  0  0  0
  4  8  1  1  0  0  0
  4  5  1  0  0  0  0
  5 11  1  1  0  0  0
  6 13  1  6  0  0  0
  6  5  1  0  0  0  0
  7 15  1  1  0  0  0
  7  6  1  0  0  0  0
  9  8  1  0  0  0  0
  9 10  1  0  0  0  0
 11 12  1  0  0  0  0
 13 14  1  0  0  0  0
 15 16  1  0  0  0  0
 17  1  1  1  0  0  0
 18 23  1  6  0  0  0
 18 17  1  0  0  0  0
 19 18  1  0  0  0  0
 20 26  1  6  0  0  0
 20 19  1  0  0  0  0
 20 21  1  0  0  0  0
 21 22  1  0  0  0  0
 21 28  1  1  0  0  0
 22 17  1  0  0  0  0
 22 30  1  1  0  0  0
 23 24  1  0  0  0  0
 25 24  1  0  0  0  0
 26 27  1  0  0  0  0
 28 29  1  0  0  0  0
 30 31  1  0  0  0  0
M  END
>  <MODEL>
9

>  <REMARK>
 VINA RESULT:      -6.8      1.235      2.536
  12 active torsions:
  status: ('A' for Active; 'I' for Inactive)
    1  A    between atoms: O_1  and  C_2 
    2  A    between atoms: C_2  and  C_3 
    3  A    between atoms: C_5  and  O_6 
    4  A    between atoms: O_6  and  C_7 
    5  A    between atoms: C_8  and  C_9 
    6  A    between atoms: C_9  and  O_10 
    7  A    between atoms: C_12  and  O_13 
    8  A    between atoms: C_14  and  O_15 
    9  A    between atoms: C_16  and  O_17 
   10  A    between atoms: C_18  and  O_19 
   11  A    between atoms: C_20  and  O_21 
   12  A    between atoms: C_22  and  O_23 

>  <TORSDO>
F 12

$$$$
