../results/processed/lowest_conf/7XP5/docked/s2.pdbqt
 OpenBabel07252416053D

 10  9  0  0  1  0  0  0  0  0999 V2000
  144.7760  133.4520  103.1810 C   0  0  0  0  0  1  0  0  0  0  0  0
  145.3390  133.5180  101.7630 C   0  0  1  0  0  3  0  0  0  0  0  0
  145.3130  132.1340  101.0960 C   0  0  0  0  0  2  0  0  0  0  0  0
  145.6150  131.1110  102.0440 O   0  0  0  0  0  0  0  0  0  0  0  0
  146.4740  131.3670  102.4340 H   0  0  0  0  0  0  0  0  0  0  0  0
  144.5400  134.3870  100.9400 O   0  0  0  0  0  0  0  0  0  0  0  0
  143.2450  134.6600  101.4950 C   0  0  0  0  0  2  0  0  0  0  0  0
  142.3890  135.2920  100.4010 C   0  0  0  0  0  2  0  0  0  0  0  0
  142.5420  136.7090  100.4270 O   0  0  0  0  0  0  0  0  0  0  0  0
  141.6370  137.0690  100.3510 H   0  0  0  0  0  0  0  0  0  0  0  0
  2  1  1  1  0  0  0
  3  2  1  0  0  0  0
  3  4  1  0  0  0  0
  4  5  1  0  0  0  0
  6  7  1  0  0  0  0
  6  2  1  0  0  0  0
  8  9  1  0  0  0  0
  8  7  1  0  0  0  0
 10  9  1  0  0  0  0
M  END
>  <MODEL>
1

>  <REMARK>
 VINA RESULT:      -4.2      0.000      0.000
  6 active torsions:
  status: ('A' for Active; 'I' for Inactive)
    1  A    between atoms: C_2  and  C_3 
    2  A    between atoms: C_2  and  O_5 
    3  A    between atoms: C_3  and  O_4 
    4  A    between atoms: O_5  and  C_6 
    5  A    between atoms: C_6  and  C_7 
    6  A    between atoms: C_7  and  O_8 

>  <TORSDO>
F 6

$$$$
../results/processed/lowest_conf/7XP5/docked/s2.pdbqt
 OpenBabel07252416053D

 10  9  0  0  1  0  0  0  0  0999 V2000
  145.2530  131.4660  100.6270 C   0  0  0  0  0  1  0  0  0  0  0  0
  146.0340  132.6070  101.2740 C   0  0  1  0  0  3  0  0  0  0  0  0
  146.0070  133.8630  100.3910 C   0  0  0  0  0  2  0  0  0  0  0  0
  146.3180  135.0270  101.1570 O   0  0  0  0  0  0  0  0  0  0  0  0
  146.1040  134.7900  102.0810 H   0  0  0  0  0  0  0  0  0  0  0  0
  145.4430  132.9760  102.5340 O   0  0  0  0  0  0  0  0  0  0  0  0
  144.0330  132.7190  102.5950 C   0  0  0  0  0  2  0  0  0  0  0  0
  143.3120  134.0630  102.6340 C   0  0  0  0  0  2  0  0  0  0  0  0
  144.1330  135.0320  103.2810 O   0  0  0  0  0  0  0  0  0  0  0  0
  143.7350  135.8970  103.0630 H   0  0  0  0  0  0  0  0  0  0  0  0
  2  1  1  6  0  0  0
  2  6  1  0  0  0  0
  3  4  1  0  0  0  0
  3  2  1  0  0  0  0
  4  5  1  0  0  0  0
  6  7  1  0  0  0  0
  7  8  1  0  0  0  0
  8  9  1  0  0  0  0
 10  9  1  0  0  0  0
M  END
>  <MODEL>
2

>  <REMARK>
 VINA RESULT:      -4.2      2.047      2.842
  6 active torsions:
  status: ('A' for Active; 'I' for Inactive)
    1  A    between atoms: C_2  and  C_3 
    2  A    between atoms: C_2  and  O_5 
    3  A    between atoms: C_3  and  O_4 
    4  A    between atoms: O_5  and  C_6 
    5  A    between atoms: C_6  and  C_7 
    6  A    between atoms: C_7  and  O_8 

>  <TORSDO>
F 6

$$$$
../results/processed/lowest_conf/7XP5/docked/s2.pdbqt
 OpenBabel07252416053D

 10  9  0  0  1  0  0  0  0  0999 V2000
  147.0580  132.5580  100.1790 C   0  0  0  0  0  1  0  0  0  0  0  0
  145.7130  132.8610  100.8370 C   0  0  1  0  0  3  0  0  0  0  0  0
  144.7410  131.6830  100.6720 C   0  0  0  0  0  2  0  0  0  0  0  0
  145.4380  130.5060  100.2650 O   0  0  0  0  0  0  0  0  0  0  0  0
  144.9830  130.2060   99.4530 H   0  0  0  0  0  0  0  0  0  0  0  0
  145.8760  133.0660  102.2520 O   0  0  0  0  0  0  0  0  0  0  0  0
  144.6380  133.0330  102.9750 C   0  0  0  0  0  2  0  0  0  0  0  0
  144.0080  134.4200  102.8930 C   0  0  0  0  0  2  0  0  0  0  0  0
  144.3860  135.1900  104.0320 O   0  0  0  0  0  0  0  0  0  0  0  0
  145.3010  134.9170  104.2370 H   0  0  0  0  0  0  0  0  0  0  0  0
  2  1  1  1  0  0  0
  2  6  1  0  0  0  0
  3  2  1  0  0  0  0
  4  3  1  0  0  0  0
  5  4  1  0  0  0  0
  6  7  1  0  0  0  0
  8  7  1  0  0  0  0
  8  9  1  0  0  0  0
  9 10  1  0  0  0  0
M  END
>  <MODEL>
3

>  <REMARK>
 VINA RESULT:      -4.1      2.293      2.762
  6 active torsions:
  status: ('A' for Active; 'I' for Inactive)
    1  A    between atoms: C_2  and  C_3 
    2  A    between atoms: C_2  and  O_5 
    3  A    between atoms: C_3  and  O_4 
    4  A    between atoms: O_5  and  C_6 
    5  A    between atoms: C_6  and  C_7 
    6  A    between atoms: C_7  and  O_8 

>  <TORSDO>
F 6

$$$$
../results/processed/lowest_conf/7XP5/docked/s2.pdbqt
 OpenBabel07252416053D

 10  9  0  0  1  0  0  0  0  0999 V2000
  139.5910  144.8940   98.1670 C   0  0  0  0  0  1  0  0  0  0  0  0
  139.4250  143.6580   99.0490 C   0  0  1  0  0  3  0  0  0  0  0  0
  140.2890  143.7640  100.3140 C   0  0  0  0  0  2  0  0  0  0  0  0
  140.8610  145.0670  100.4280 O   0  0  0  0  0  0  0  0  0  0  0  0
  141.0650  145.3390   99.5110 H   0  0  0  0  0  0  0  0  0  0  0  0
  138.0610  143.5300   99.4900 O   0  0  0  0  0  0  0  0  0  0  0  0
  137.9430  142.9920  100.8150 C   0  0  0  0  0  2  0  0  0  0  0  0
  136.8720  141.9050  100.7860 C   0  0  0  0  0  2  0  0  0  0  0  0
  137.4190  140.7040  100.2440 O   0  0  0  0  0  0  0  0  0  0  0  0
  137.9770  140.3300  100.9530 H   0  0  0  0  0  0  0  0  0  0  0  0
  2  1  1  6  0  0  0
  2  6  1  0  0  0  0
  2  3  1  0  0  0  0
  3  4  1  0  0  0  0
  5  4  1  0  0  0  0
  6  7  1  0  0  0  0
  8  7  1  0  0  0  0
  9  8  1  0  0  0  0
  9 10  1  0  0  0  0
M  END
>  <MODEL>
4

>  <REMARK>
 VINA RESULT:      -3.9     10.557     11.464
  6 active torsions:
  status: ('A' for Active; 'I' for Inactive)
    1  A    between atoms: C_2  and  C_3 
    2  A    between atoms: C_2  and  O_5 
    3  A    between atoms: C_3  and  O_4 
    4  A    between atoms: O_5  and  C_6 
    5  A    between atoms: C_6  and  C_7 
    6  A    between atoms: C_7  and  O_8 

>  <TORSDO>
F 6

$$$$
../results/processed/lowest_conf/7XP5/docked/s2.pdbqt
 OpenBabel07252416053D

 10  9  0  0  1  0  0  0  0  0999 V2000
  144.8030  132.1550  102.2300 C   0  0  0  0  0  1  0  0  0  0  0  0
  143.8910  133.1030  101.4550 C   0  0  1  0  0  3  0  0  0  0  0  0
  143.4760  134.3000  102.3220 C   0  0  0  0  0  2  0  0  0  0  0  0
  144.0070  135.5150  101.7940 O   0  0  0  0  0  0  0  0  0  0  0  0
  144.3680  135.9940  102.5660 H   0  0  0  0  0  0  0  0  0  0  0  0
  144.5750  133.6400  100.3090 O   0  0  0  0  0  0  0  0  0  0  0  0
  145.8860  133.0890  100.1220 C   0  0  0  0  0  2  0  0  0  0  0  0
  146.8680  134.2490   99.9800 C   0  0  0  0  0  2  0  0  0  0  0  0
  146.7880  135.0910  101.1280 O   0  0  0  0  0  0  0  0  0  0  0  0
  146.9790  135.9920  100.8020 H   0  0  0  0  0  0  0  0  0  0  0  0
  2  1  1  1  0  0  0
  2  3  1  0  0  0  0
  4  3  1  0  0  0  0
  4  5  1  0  0  0  0
  6  2  1  0  0  0  0
  7  6  1  0  0  0  0
  8  7  1  0  0  0  0
  8  9  1  0  0  0  0
 10  9  1  0  0  0  0
M  END
>  <MODEL>
5

>  <REMARK>
 VINA RESULT:      -3.9      1.940      3.378
  6 active torsions:
  status: ('A' for Active; 'I' for Inactive)
    1  A    between atoms: C_2  and  C_3 
    2  A    between atoms: C_2  and  O_5 
    3  A    between atoms: C_3  and  O_4 
    4  A    between atoms: O_5  and  C_6 
    5  A    between atoms: C_6  and  C_7 
    6  A    between atoms: C_7  and  O_8 

>  <TORSDO>
F 6

$$$$
../results/processed/lowest_conf/7XP5/docked/s2.pdbqt
 OpenBabel07252416053D

 10  9  0  0  1  0  0  0  0  0999 V2000
  143.2880  133.4970  102.2960 C   0  0  0  0  0  1  0  0  0  0  0  0
  144.8040  133.4280  102.4600 C   0  0  1  0  0  3  0  0  0  0  0  0
  145.2420  134.0460  103.7960 C   0  0  0  0  0  2  0  0  0  0  0  0
  144.4610  135.2010  104.1000 O   0  0  0  0  0  0  0  0  0  0  0  0
  144.2140  135.5790  103.2320 H   0  0  0  0  0  0  0  0  0  0  0  0
  145.2520  132.0610  102.4710 O   0  0  0  0  0  0  0  0  0  0  0  0
  145.3320  131.4800  101.1620 C   0  0  0  0  0  2  0  0  0  0  0  0
  146.3610  132.2710  100.3590 C   0  0  0  0  0  2  0  0  0  0  0  0
  147.4920  131.4490  100.0820 O   0  0  0  0  0  0  0  0  0  0  0  0
  148.2700  131.9870  100.3270 H   0  0  0  0  0  0  0  0  0  0  0  0
  2  1  1  1  0  0  0
  2  6  1  0  0  0  0
  2  3  1  0  0  0  0
  3  4  1  0  0  0  0
  5  4  1  0  0  0  0
  7  6  1  0  0  0  0
  8  7  1  0  0  0  0
  9 10  1  0  0  0  0
  9  8  1  0  0  0  0
M  END
>  <MODEL>
6

>  <REMARK>
 VINA RESULT:      -3.9      2.244      4.139
  6 active torsions:
  status: ('A' for Active; 'I' for Inactive)
    1  A    between atoms: C_2  and  C_3 
    2  A    between atoms: C_2  and  O_5 
    3  A    between atoms: C_3  and  O_4 
    4  A    between atoms: O_5  and  C_6 
    5  A    between atoms: C_6  and  C_7 
    6  A    between atoms: C_7  and  O_8 

>  <TORSDO>
F 6

$$$$
../results/processed/lowest_conf/7XP5/docked/s2.pdbqt
 OpenBabel07252416053D

 10  9  0  0  1  0  0  0  0  0999 V2000
  136.0830  142.5000  100.0840 C   0  0  0  0  0  1  0  0  0  0  0  0
  137.3040  143.4150  100.1470 C   0  0  1  0  0  3  0  0  0  0  0  0
  138.2250  143.0250  101.3120 C   0  0  0  0  0  2  0  0  0  0  0  0
  139.4630  143.7320  101.2370 O   0  0  0  0  0  0  0  0  0  0  0  0
  140.0030  143.3840  101.9730 H   0  0  0  0  0  0  0  0  0  0  0  0
  138.0870  143.2980   98.9460 O   0  0  0  0  0  0  0  0  0  0  0  0
  138.1210  144.5050   98.1710 C   0  0  0  0  0  2  0  0  0  0  0  0
  139.5820  144.8250   97.8640 C   0  0  0  0  0  2  0  0  0  0  0  0
  140.1590  145.5380   98.9560 O   0  0  0  0  0  0  0  0  0  0  0  0
  139.7760  145.1360   99.7590 H   0  0  0  0  0  0  0  0  0  0  0  0
  2  1  1  6  0  0  0
  2  3  1  0  0  0  0
  4  3  1  0  0  0  0
  4  5  1  0  0  0  0
  6  2  1  0  0  0  0
  7  6  1  0  0  0  0
  8  7  1  0  0  0  0
  8  9  1  0  0  0  0
  9 10  1  0  0  0  0
M  END
>  <MODEL>
7

>  <REMARK>
 VINA RESULT:      -3.8     11.135     11.985
  6 active torsions:
  status: ('A' for Active; 'I' for Inactive)
    1  A    between atoms: C_2  and  C_3 
    2  A    between atoms: C_2  and  O_5 
    3  A    between atoms: C_3  and  O_4 
    4  A    between atoms: O_5  and  C_6 
    5  A    between atoms: C_6  and  C_7 
    6  A    between atoms: C_7  and  O_8 

>  <TORSDO>
F 6

$$$$
../results/processed/lowest_conf/7XP5/docked/s2.pdbqt
 OpenBabel07252416053D

 10  9  0  0  1  0  0  0  0  0999 V2000
  138.2730  143.4720   96.7420 C   0  0  0  0  0  1  0  0  0  0  0  0
  139.5340  143.8010   97.5380 C   0  0  1  0  0  3  0  0  0  0  0  0
  139.6380  145.3090   97.8060 C   0  0  0  0  0  2  0  0  0  0  0  0
  140.3080  145.5580   99.0420 O   0  0  0  0  0  0  0  0  0  0  0  0
  140.5750  144.6770   99.3710 H   0  0  0  0  0  0  0  0  0  0  0  0
  139.5040  143.1550   98.8230 O   0  0  0  0  0  0  0  0  0  0  0  0
  138.1880  142.7480   99.2230 C   0  0  0  0  0  2  0  0  0  0  0  0
  138.0040  143.1270  100.6900 C   0  0  0  0  0  2  0  0  0  0  0  0
  139.2000  143.7230  101.1870 O   0  0  0  0  0  0  0  0  0  0  0  0
  139.7570  143.8820  100.4010 H   0  0  0  0  0  0  0  0  0  0  0  0
  2  1  1  1  0  0  0
  2  3  1  0  0  0  0
  2  6  1  0  0  0  0
  3  4  1  0  0  0  0
  4  5  1  0  0  0  0
  6  7  1  0  0  0  0
  7  8  1  0  0  0  0
  8  9  1  0  0  0  0
 10  9  1  0  0  0  0
M  END
>  <MODEL>
8

>  <REMARK>
 VINA RESULT:      -3.8     11.061     11.982
  6 active torsions:
  status: ('A' for Active; 'I' for Inactive)
    1  A    between atoms: C_2  and  C_3 
    2  A    between atoms: C_2  and  O_5 
    3  A    between atoms: C_3  and  O_4 
    4  A    between atoms: O_5  and  C_6 
    5  A    between atoms: C_6  and  C_7 
    6  A    between atoms: C_7  and  O_8 

>  <TORSDO>
F 6

$$$$
../results/processed/lowest_conf/7XP5/docked/s2.pdbqt
 OpenBabel07252416053D

 10  9  0  0  1  0  0  0  0  0999 V2000
  146.6210  133.8460  101.1490 C   0  0  0  0  0  1  0  0  0  0  0  0
  146.3760  132.6110  100.2860 C   0  0  1  0  0  3  0  0  0  0  0  0
  145.4640  131.6060  101.0060 C   0  0  0  0  0  2  0  0  0  0  0  0
  145.2950  130.4250  100.2230 O   0  0  0  0  0  0  0  0  0  0  0  0
  145.0730  130.7420   99.3250 H   0  0  0  0  0  0  0  0  0  0  0  0
  145.7070  132.9710   99.0640 O   0  0  0  0  0  0  0  0  0  0  0  0
  146.4870  133.8350   98.2240 C   0  0  0  0  0  2  0  0  0  0  0  0
  145.5260  134.7320   97.4500 C   0  0  0  0  0  2  0  0  0  0  0  0
  144.4500  135.1290   98.2970 O   0  0  0  0  0  0  0  0  0  0  0  0
  144.8720  135.4940   99.0990 H   0  0  0  0  0  0  0  0  0  0  0  0
  2  3  1  0  0  0  0
  2  1  1  1  0  0  0
  4  3  1  0  0  0  0
  5  4  1  0  0  0  0
  6  2  1  0  0  0  0
  7  6  1  0  0  0  0
  8  7  1  0  0  0  0
  8  9  1  0  0  0  0
  9 10  1  0  0  0  0
M  END
>  <MODEL>
9

>  <REMARK>
 VINA RESULT:      -3.8      2.797      3.047
  6 active torsions:
  status: ('A' for Active; 'I' for Inactive)
    1  A    between atoms: C_2  and  C_3 
    2  A    between atoms: C_2  and  O_5 
    3  A    between atoms: C_3  and  O_4 
    4  A    between atoms: O_5  and  C_6 
    5  A    between atoms: C_6  and  C_7 
    6  A    between atoms: C_7  and  O_8 

>  <TORSDO>
F 6

$$$$
