../results/processed/lowest_conf/7XP5/docked/s2c.pdbqt
 OpenBabel07252416063D

 13 13  0  0  1  0  0  0  0  0999 V2000
  144.7520  133.1720  100.4080 C   0  0  2  0  0  3  0  0  0  0  0  0
  144.7820  131.6780  100.7450 C   0  0  0  0  0  2  0  0  0  0  0  0
  146.2120  131.1530  100.7930 C   0  0  0  0  0  2  0  0  0  0  0  0
  146.9580  131.5070   99.5090 C   0  0  1  0  0  3  0  0  0  0  0  0
  146.8240  133.0130   99.2170 C   0  0  1  0  0  3  0  0  0  0  0  0
  147.4390  133.3800   97.8690 C   0  0  0  0  0  1  0  0  0  0  0  0
  145.4470  133.4080   99.1740 O   0  0  0  0  0  0  0  0  0  0  0  0
  145.3280  133.9590  101.4560 O   0  0  0  0  0  0  0  0  0  0  0  0
  144.7080  133.8620  102.6600 C   0  0  0  0  0  0  0  0  0  0  0  0
  143.2710  134.2670  102.5290 C   0  0  0  0  0  1  0  0  0  0  0  0
  145.2320  133.5100  103.7070 O   0  0  0  0  0  0  0  0  0  0  0  0
  148.3190  131.1150   99.6650 O   0  0  0  0  0  0  0  0  0  0  0  0
  148.4990  131.0390  100.6170 H   0  0  0  0  0  0  0  0  0  0  0  0
  1  2  1  0  0  0  0
  1  8  1  1  0  0  0
  2  3  1  0  0  0  0
  4 12  1  1  0  0  0
  4  3  1  0  0  0  0
  5  6  1  6  0  0  0
  5  4  1  0  0  0  0
  7  5  1  0  0  0  0
  7  1  1  0  0  0  0
  8  9  1  0  0  0  0
  9 11  2  0  0  0  0
 10  9  1  0  0  0  0
 12 13  1  0  0  0  0
M  END
>  <MODEL>
1

>  <REMARK>
 VINA RESULT:      -5.6      0.000      0.000
  3 active torsions:
  status: ('A' for Active; 'I' for Inactive)
    1  A    between atoms: C_2  and  O_4 
    2  A    between atoms: O_4  and  C_5 
    3  A    between atoms: C_8  and  O_9 

>  <TORSDO>
F 3

$$$$
../results/processed/lowest_conf/7XP5/docked/s2c.pdbqt
 OpenBabel07252416063D

 13 13  0  0  1  0  0  0  0  0999 V2000
  146.2380  132.5320   99.8890 C   0  0  2  0  0  3  0  0  0  0  0  0
  147.6640  132.9640  100.2440 C   0  0  0  0  0  2  0  0  0  0  0  0
  147.8770  134.4460   99.9630 C   0  0  0  0  0  2  0  0  0  0  0  0
  147.4730  134.7860   98.5310 C   0  0  1  0  0  3  0  0  0  0  0  0
  146.0530  134.2630   98.2440 C   0  0  1  0  0  3  0  0  0  0  0  0
  145.6670  134.4610   96.7810 C   0  0  0  0  0  1  0  0  0  0  0  0
  145.9560  132.8610   98.5210 O   0  0  0  0  0  0  0  0  0  0  0  0
  145.2740  133.1450  100.7520 O   0  0  0  0  0  0  0  0  0  0  0  0
  144.9130  132.4080  101.8330 C   0  0  0  0  0  0  0  0  0  0  0  0
  143.8770  133.1410  102.6290 C   0  0  0  0  0  1  0  0  0  0  0  0
  145.3640  131.3110  102.1320 O   0  0  0  0  0  0  0  0  0  0  0  0
  147.5610  136.1980   98.3670 O   0  0  0  0  0  0  0  0  0  0  0  0
  147.5780  136.3860   97.4140 H   0  0  0  0  0  0  0  0  0  0  0  0
  1  2  1  0  0  0  0
  1  8  1  1  0  0  0
  3  2  1  0  0  0  0
  4 12  1  1  0  0  0
  4  3  1  0  0  0  0
  5  6  1  6  0  0  0
  5  7  1  0  0  0  0
  5  4  1  0  0  0  0
  7  1  1  0  0  0  0
  8  9  1  0  0  0  0
  9 11  2  0  0  0  0
  9 10  1  0  0  0  0
 13 12  1  0  0  0  0
M  END
>  <MODEL>
2

>  <REMARK>
 VINA RESULT:      -5.5      1.884      2.739
  3 active torsions:
  status: ('A' for Active; 'I' for Inactive)
    1  A    between atoms: C_2  and  O_4 
    2  A    between atoms: O_4  and  C_5 
    3  A    between atoms: C_8  and  O_9 

>  <TORSDO>
F 3

$$$$
../results/processed/lowest_conf/7XP5/docked/s2c.pdbqt
 OpenBabel07252416063D

 13 13  0  0  1  0  0  0  0  0999 V2000
  146.4050  132.1220   99.7580 C   0  0  2  0  0  3  0  0  0  0  0  0
  145.3210  131.5260  100.6600 C   0  0  0  0  0  2  0  0  0  0  0  0
  144.5740  132.6170  101.4180 C   0  0  0  0  0  2  0  0  0  0  0  0
  145.5540  133.5270  102.1560 C   0  0  1  0  0  3  0  0  0  0  0  0
  146.6400  134.0290  101.1880 C   0  0  1  0  0  3  0  0  0  0  0  0
  147.7160  134.8290  101.9170 C   0  0  0  0  0  1  0  0  0  0  0  0
  147.2960  132.9340  100.5370 O   0  0  0  0  0  0  0  0  0  0  0  0
  145.8380  132.8950   98.6950 O   0  0  0  0  0  0  0  0  0  0  0  0
  146.7300  133.3910   97.8000 C   0  0  0  0  0  0  0  0  0  0  0  0
  146.4380  134.8360   97.5350 C   0  0  0  0  0  1  0  0  0  0  0  0
  147.6350  132.7630   97.2710 O   0  0  0  0  0  0  0  0  0  0  0  0
  144.8150  134.6010  102.7300 O   0  0  0  0  0  0  0  0  0  0  0  0
  144.8010  134.4700  103.6930 H   0  0  0  0  0  0  0  0  0  0  0  0
  1  8  1  6  0  0  0
  1  7  1  0  0  0  0
  1  2  1  0  0  0  0
  2  3  1  0  0  0  0
  3  4  1  0  0  0  0
  4 12  1  6  0  0  0
  5  6  1  1  0  0  0
  5  4  1  0  0  0  0
  7  5  1  0  0  0  0
  9  8  1  0  0  0  0
 10  9  1  0  0  0  0
 11  9  2  0  0  0  0
 12 13  1  0  0  0  0
M  END
>  <MODEL>
3

>  <REMARK>
 VINA RESULT:      -5.3      1.816      4.140
  3 active torsions:
  status: ('A' for Active; 'I' for Inactive)
    1  A    between atoms: C_2  and  O_4 
    2  A    between atoms: O_4  and  C_5 
    3  A    between atoms: C_8  and  O_9 

>  <TORSDO>
F 3

$$$$
../results/processed/lowest_conf/7XP5/docked/s2c.pdbqt
 OpenBabel07252416063D

 13 13  0  0  1  0  0  0  0  0999 V2000
  136.7900  142.2560   99.5270 C   0  0  2  0  0  3  0  0  0  0  0  0
  137.4530  141.9100  100.8630 C   0  0  0  0  0  2  0  0  0  0  0  0
  138.3890  143.0220  101.3180 C   0  0  0  0  0  2  0  0  0  0  0  0
  139.3830  143.3740  100.2150 C   0  0  1  0  0  3  0  0  0  0  0  0
  138.6360  143.6470   98.8960 C   0  0  1  0  0  3  0  0  0  0  0  0
  139.6030  143.8660   97.7370 C   0  0  0  0  0  1  0  0  0  0  0  0
  137.7960  142.5410   98.5430 O   0  0  0  0  0  0  0  0  0  0  0  0
  135.8980  143.3690   99.6550 O   0  0  0  0  0  0  0  0  0  0  0  0
  134.6930  143.2170   99.0510 C   0  0  0  0  0  0  0  0  0  0  0  0
  133.8420  142.2670   99.8380 C   0  0  0  0  0  1  0  0  0  0  0  0
  134.3400  143.7590   98.0130 O   0  0  0  0  0  0  0  0  0  0  0  0
  140.1390  144.5040  100.6410 O   0  0  0  0  0  0  0  0  0  0  0  0
  140.2970  145.0660   99.8630 H   0  0  0  0  0  0  0  0  0  0  0  0
  1  8  1  1  0  0  0
  1  2  1  0  0  0  0
  2  3  1  0  0  0  0
  4 12  1  1  0  0  0
  4  3  1  0  0  0  0
  5  6  1  6  0  0  0
  5  4  1  0  0  0  0
  7  5  1  0  0  0  0
  7  1  1  0  0  0  0
  9  8  1  0  0  0  0
  9 10  1  0  0  0  0
 11  9  2  0  0  0  0
 13 12  1  0  0  0  0
M  END
>  <MODEL>
4

>  <REMARK>
 VINA RESULT:      -5.2     12.613     13.678
  3 active torsions:
  status: ('A' for Active; 'I' for Inactive)
    1  A    between atoms: C_2  and  O_4 
    2  A    between atoms: O_4  and  C_5 
    3  A    between atoms: C_8  and  O_9 

>  <TORSDO>
F 3

$$$$
../results/processed/lowest_conf/7XP5/docked/s2c.pdbqt
 OpenBabel07252416063D

 13 13  0  0  1  0  0  0  0  0999 V2000
  139.1280  141.9640   96.9480 C   0  0  2  0  0  3  0  0  0  0  0  0
  139.1410  143.2440   96.1070 C   0  0  0  0  0  2  0  0  0  0  0  0
  139.8960  144.3610   96.8170 C   0  0  0  0  0  2  0  0  0  0  0  0
  139.3570  144.5620   98.2300 C   0  0  1  0  0  3  0  0  0  0  0  0
  139.3230  143.2170   98.9800 C   0  0  1  0  0  3  0  0  0  0  0  0
  138.6610  143.3530  100.3480 C   0  0  0  0  0  1  0  0  0  0  0  0
  138.5780  142.2380   98.2450 O   0  0  0  0  0  0  0  0  0  0  0  0
  140.4400  141.4070   97.0770 O   0  0  0  0  0  0  0  0  0  0  0  0
  140.8290  140.5990   96.0570 C   0  0  0  0  0  0  0  0  0  0  0  0
  142.3090  140.7100   95.8520 C   0  0  0  0  0  1  0  0  0  0  0  0
  140.0920  139.8890   95.3880 O   0  0  0  0  0  0  0  0  0  0  0  0
  140.1850  145.5160   98.8900 O   0  0  0  0  0  0  0  0  0  0  0  0
  139.9130  145.5500   99.8220 H   0  0  0  0  0  0  0  0  0  0  0  0
  1  8  1  1  0  0  0
  1  7  1  0  0  0  0
  2  3  1  0  0  0  0
  2  1  1  0  0  0  0
  3  4  1  0  0  0  0
  4 12  1  1  0  0  0
  4  5  1  0  0  0  0
  5  6  1  1  0  0  0
  7  5  1  0  0  0  0
  9  8  1  0  0  0  0
 10  9  1  0  0  0  0
 11  9  2  0  0  0  0
 12 13  1  0  0  0  0
M  END
>  <MODEL>
5

>  <REMARK>
 VINA RESULT:      -5.0     10.763     12.705
  3 active torsions:
  status: ('A' for Active; 'I' for Inactive)
    1  A    between atoms: C_2  and  O_4 
    2  A    between atoms: O_4  and  C_5 
    3  A    between atoms: C_8  and  O_9 

>  <TORSDO>
F 3

$$$$
../results/processed/lowest_conf/7XP5/docked/s2c.pdbqt
 OpenBabel07252416063D

 13 13  0  0  1  0  0  0  0  0999 V2000
  147.0810  132.3570   99.2000 C   0  0  2  0  0  3  0  0  0  0  0  0
  147.5330  133.8120   99.3540 C   0  0  0  0  0  2  0  0  0  0  0  0
  147.6030  134.2160  100.8210 C   0  0  0  0  0  2  0  0  0  0  0  0
  146.2860  133.9060  101.5280 C   0  0  1  0  0  3  0  0  0  0  0  0
  145.8780  132.4440  101.2700 C   0  0  1  0  0  3  0  0  0  0  0  0
  144.4980  132.1350  101.8450 C   0  0  0  0  0  1  0  0  0  0  0  0
  145.8240  132.1640   99.8660 O   0  0  0  0  0  0  0  0  0  0  0  0
  148.0560  131.4460   99.7190 O   0  0  0  0  0  0  0  0  0  0  0  0
  148.8330  130.8380   98.7870 C   0  0  0  0  0  0  0  0  0  0  0  0
  149.5200  129.6500   99.3890 C   0  0  0  0  0  1  0  0  0  0  0  0
  148.9710  131.1980   97.6260 O   0  0  0  0  0  0  0  0  0  0  0  0
  146.4530  134.1740  102.9170 O   0  0  0  0  0  0  0  0  0  0  0  0
  145.5890  134.4390  103.2740 H   0  0  0  0  0  0  0  0  0  0  0  0
  1  2  1  0  0  0  0
  1  8  1  1  0  0  0
  1  7  1  0  0  0  0
  2  3  1  0  0  0  0
  3  4  1  0  0  0  0
  4 12  1  1  0  0  0
  5  4  1  0  0  0  0
  5  6  1  6  0  0  0
  7  5  1  0  0  0  0
  9 10  1  0  0  0  0
  9  8  1  0  0  0  0
 11  9  2  0  0  0  0
 12 13  1  0  0  0  0
M  END
>  <MODEL>
6

>  <REMARK>
 VINA RESULT:      -5.0      1.769      4.870
  3 active torsions:
  status: ('A' for Active; 'I' for Inactive)
    1  A    between atoms: C_2  and  O_4 
    2  A    between atoms: O_4  and  C_5 
    3  A    between atoms: C_8  and  O_9 

>  <TORSDO>
F 3

$$$$
../results/processed/lowest_conf/7XP5/docked/s2c.pdbqt
 OpenBabel07252416063D

 13 13  0  0  1  0  0  0  0  0999 V2000
  146.4190  134.3700   98.0550 C   0  0  2  0  0  3  0  0  0  0  0  0
  145.5840  135.1310   97.0210 C   0  0  0  0  0  2  0  0  0  0  0  0
  145.2840  134.2600   95.8070 C   0  0  0  0  0  2  0  0  0  0  0  0
  146.5710  133.6680   95.2390 C   0  0  1  0  0  3  0  0  0  0  0  0
  147.3740  132.9770   96.3570 C   0  0  1  0  0  3  0  0  0  0  0  0
  148.7320  132.4930   95.8560 C   0  0  0  0  0  1  0  0  0  0  0  0
  147.6210  133.8770   97.4440 O   0  0  0  0  0  0  0  0  0  0  0  0
  145.6810  133.2880   98.6330 O   0  0  0  0  0  0  0  0  0  0  0  0
  145.2990  133.4720   99.9230 C   0  0  0  0  0  0  0  0  0  0  0  0
  146.4640  133.9420  100.7400 C   0  0  0  0  0  1  0  0  0  0  0  0
  144.1780  133.2780  100.3700 O   0  0  0  0  0  0  0  0  0  0  0  0
  146.2210  132.7600   94.1980 O   0  0  0  0  0  0  0  0  0  0  0  0
  146.4470  131.8630   94.4980 H   0  0  0  0  0  0  0  0  0  0  0  0
  1  8  1  6  0  0  0
  2  1  1  0  0  0  0
  3  2  1  0  0  0  0
  4 12  1  6  0  0  0
  4  3  1  0  0  0  0
  4  5  1  0  0  0  0
  5  6  1  6  0  0  0
  5  7  1  0  0  0  0
  7  1  1  0  0  0  0
  8  9  1  0  0  0  0
  9 11  2  0  0  0  0
  9 10  1  0  0  0  0
 12 13  1  0  0  0  0
M  END
>  <MODEL>
7

>  <REMARK>
 VINA RESULT:      -4.9      2.527      4.050
  3 active torsions:
  status: ('A' for Active; 'I' for Inactive)
    1  A    between atoms: C_2  and  O_4 
    2  A    between atoms: O_4  and  C_5 
    3  A    between atoms: C_8  and  O_9 

>  <TORSDO>
F 3

$$$$
../results/processed/lowest_conf/7XP5/docked/s2c.pdbqt
 OpenBabel07252416063D

 13 13  0  0  1  0  0  0  0  0999 V2000
  147.2630  133.1800   97.6030 C   0  0  2  0  0  3  0  0  0  0  0  0
  147.2810  132.3690   98.9030 C   0  0  0  0  0  2  0  0  0  0  0  0
  146.8810  133.2300  100.0950 C   0  0  0  0  0  2  0  0  0  0  0  0
  147.7290  134.4980  100.1520 C   0  0  1  0  0  3  0  0  0  0  0  0
  147.7030  135.2140   98.7890 C   0  0  1  0  0  3  0  0  0  0  0  0
  148.6500  136.4110   98.7650 C   0  0  0  0  0  1  0  0  0  0  0  0
  148.1090  134.3320   97.7360 O   0  0  0  0  0  0  0  0  0  0  0  0
  145.9350  133.5820   97.2540 O   0  0  0  0  0  0  0  0  0  0  0  0
  145.6990  133.7060   95.9230 C   0  0  0  0  0  0  0  0  0  0  0  0
  145.4200  135.1390   95.5840 C   0  0  0  0  0  1  0  0  0  0  0  0
  145.7010  132.7940   95.1090 O   0  0  0  0  0  0  0  0  0  0  0  0
  147.2230  135.3240  101.1960 O   0  0  0  0  0  0  0  0  0  0  0  0
  147.6770  136.1820  101.1420 H   0  0  0  0  0  0  0  0  0  0  0  0
  1  8  1  1  0  0  0
  1  7  1  0  0  0  0
  1  2  1  0  0  0  0
  2  3  1  0  0  0  0
  3  4  1  0  0  0  0
  4 12  1  1  0  0  0
  5  6  1  1  0  0  0
  5  4  1  0  0  0  0
  7  5  1  0  0  0  0
  9  8  1  0  0  0  0
 10  9  1  0  0  0  0
 11  9  2  0  0  0  0
 13 12  1  0  0  0  0
M  END
>  <MODEL>
8

>  <REMARK>
 VINA RESULT:      -4.9      2.709      4.838
  3 active torsions:
  status: ('A' for Active; 'I' for Inactive)
    1  A    between atoms: C_2  and  O_4 
    2  A    between atoms: O_4  and  C_5 
    3  A    between atoms: C_8  and  O_9 

>  <TORSDO>
F 3

$$$$
../results/processed/lowest_conf/7XP5/docked/s2c.pdbqt
 OpenBabel07252416063D

 13 13  0  0  1  0  0  0  0  0999 V2000
  150.1130  131.0080   95.2450 C   0  0  2  0  0  3  0  0  0  0  0  0
  150.9350  132.2520   94.8950 C   0  0  0  0  0  2  0  0  0  0  0  0
  150.2110  133.5260   95.3130 C   0  0  0  0  0  2  0  0  0  0  0  0
  148.7940  133.5500   94.7460 C   0  0  1  0  0  3  0  0  0  0  0  0
  148.0640  132.2390   95.0930 C   0  0  1  0  0  3  0  0  0  0  0  0
  146.6930  132.1660   94.4270 C   0  0  0  0  0  1  0  0  0  0  0  0
  148.8110  131.1000   94.6480 O   0  0  0  0  0  0  0  0  0  0  0  0
  149.9940  130.8390   96.6620 O   0  0  0  0  0  0  0  0  0  0  0  0
  150.8780  129.9720   97.2170 C   0  0  0  0  0  0  0  0  0  0  0  0
  150.3190  128.5820   97.1890 C   0  0  0  0  0  1  0  0  0  0  0  0
  151.9690  130.2660   97.6850 O   0  0  0  0  0  0  0  0  0  0  0  0
  148.1220  134.6880   95.2770 O   0  0  0  0  0  0  0  0  0  0  0  0
  148.6830  135.0640   95.9770 H   0  0  0  0  0  0  0  0  0  0  0  0
  1  8  1  1  0  0  0
  2  1  1  0  0  0  0
  2  3  1  0  0  0  0
  4  5  1  0  0  0  0
  4 12  1  1  0  0  0
  4  3  1  0  0  0  0
  5  6  1  6  0  0  0
  7  5  1  0  0  0  0
  7  1  1  0  0  0  0
  8  9  1  0  0  0  0
  9 11  2  0  0  0  0
 10  9  1  0  0  0  0
 12 13  1  0  0  0  0
M  END
>  <MODEL>
9

>  <REMARK>
 VINA RESULT:      -4.9      6.348      7.397
  3 active torsions:
  status: ('A' for Active; 'I' for Inactive)
    1  A    between atoms: C_2  and  O_4 
    2  A    between atoms: O_4  and  C_5 
    3  A    between atoms: C_8  and  O_9 

>  <TORSDO>
F 3

$$$$
