../results/processed/lowest_conf/7XP5/docked/s3.pdbqt
 OpenBabel07252416053D

 15 14  0  0  1  0  0  0  0  0999 V2000
  144.0600  133.0930  101.3480 C   0  0  1  0  0  3  0  0  0  0  0  0
  145.4040  132.7310  100.7620 C   0  0  0  0  0  0  0  0  0  0  0  0
  145.5740  131.9070   99.8730 O   0  0  0  0  0  0  0  0  0  0  0  0
  146.4000  133.3990  101.4070 O   0  0  0  0  0  0  0  0  0  0  0  0
  147.5520  133.6640  100.5960 C   0  0  0  0  0  2  0  0  0  0  0  0
  147.9800  135.0990  100.8360 C   0  0  0  0  0  1  0  0  0  0  0  0
  143.9940  132.5600  102.7770 C   0  0  0  0  0  2  0  0  0  0  0  0
  144.9320  131.4960  102.9350 O   0  0  0  0  0  0  0  0  0  0  0  0
  144.4260  130.6660  102.8820 H   0  0  0  0  0  0  0  0  0  0  0  0
  143.9010  134.6130  101.2920 C   0  0  1  0  0  3  0  0  0  0  0  0
  142.5020  135.0470  100.8310 C   0  0  0  0  0  2  0  0  0  0  0  0
  142.5380  136.4530  100.5690 O   0  0  0  0  0  0  0  0  0  0  0  0
  142.0830  136.8900  101.3110 H   0  0  0  0  0  0  0  0  0  0  0  0
  144.1160  135.1700  102.5990 O   0  0  0  0  0  0  0  0  0  0  0  0
  144.3420  136.1090  102.4340 H   0  0  0  0  0  0  0  0  0  0  0  0
  1  7  1  1  0  0  0
  2  1  1  0  0  0  0
  2  4  1  0  0  0  0
  3  2  2  0  0  0  0
  5  6  1  0  0  0  0
  5  4  1  0  0  0  0
  7  8  1  0  0  0  0
  9  8  1  0  0  0  0
 10 11  1  1  0  0  0
 10  1  1  0  0  0  0
 10 14  1  0  0  0  0
 12 11  1  0  0  0  0
 12 13  1  0  0  0  0
 15 14  1  0  0  0  0
M  END
>  <MODEL>
1

>  <REMARK>
 VINA RESULT:      -5.3      0.000      0.000
  9 active torsions:
  status: ('A' for Active; 'I' for Inactive)
    1  A    between atoms: C_2  and  O_3 
    2  A    between atoms: O_3  and  C_4 
    3  A    between atoms: C_4  and  C_6 
    4  A    between atoms: C_6  and  C_7 
    5  A    between atoms: C_6  and  C_9 
    6  A    between atoms: C_7  and  O_8 
    7  A    between atoms: C_9  and  C_10 
    8  A    between atoms: C_9  and  O_12 
    9  A    between atoms: C_10  and  O_11 

>  <TORSDO>
F 9

$$$$
../results/processed/lowest_conf/7XP5/docked/s3.pdbqt
 OpenBabel07252416053D

 15 14  0  0  1  0  0  0  0  0999 V2000
  144.5450  132.7980  100.8800 C   0  0  1  0  0  3  0  0  0  0  0  0
  145.5290  133.3260   99.8650 C   0  0  0  0  0  0  0  0  0  0  0  0
  145.2190  133.8100   98.7850 O   0  0  0  0  0  0  0  0  0  0  0  0
  146.8070  133.1250  100.2910 O   0  0  0  0  0  0  0  0  0  0  0  0
  147.6970  134.2140  100.0170 C   0  0  0  0  0  2  0  0  0  0  0  0
  148.0760  134.8580  101.3360 C   0  0  0  0  0  1  0  0  0  0  0  0
  145.2040  131.6550  101.6480 C   0  0  0  0  0  2  0  0  0  0  0  0
  145.4900  130.5800  100.7530 O   0  0  0  0  0  0  0  0  0  0  0  0
  146.4510  130.5940  100.5950 H   0  0  0  0  0  0  0  0  0  0  0  0
  144.1350  133.9480  101.8020 C   0  0  1  0  0  3  0  0  0  0  0  0
  144.6890  133.7960  103.2260 C   0  0  0  0  0  2  0  0  0  0  0  0
  144.4330  135.0110  103.9340 O   0  0  0  0  0  0  0  0  0  0  0  0
  144.8210  135.7330  103.4060 H   0  0  0  0  0  0  0  0  0  0  0  0
  144.6310  135.1900  101.2760 O   0  0  0  0  0  0  0  0  0  0  0  0
  144.9540  134.9670  100.3780 H   0  0  0  0  0  0  0  0  0  0  0  0
  1  7  1  1  0  0  0
  1 10  1  0  0  0  0
  2  4  1  0  0  0  0
  2  1  1  0  0  0  0
  3  2  2  0  0  0  0
  5  4  1  0  0  0  0
  5  6  1  0  0  0  0
  8  7  1  0  0  0  0
  9  8  1  0  0  0  0
 10 11  1  1  0  0  0
 11 12  1  0  0  0  0
 13 12  1  0  0  0  0
 14 10  1  0  0  0  0
 15 14  1  0  0  0  0
M  END
>  <MODEL>
2

>  <REMARK>
 VINA RESULT:      -5.1      1.538      2.050
  9 active torsions:
  status: ('A' for Active; 'I' for Inactive)
    1  A    between atoms: C_2  and  O_3 
    2  A    between atoms: O_3  and  C_4 
    3  A    between atoms: C_4  and  C_6 
    4  A    between atoms: C_6  and  C_7 
    5  A    between atoms: C_6  and  C_9 
    6  A    between atoms: C_7  and  O_8 
    7  A    between atoms: C_9  and  C_10 
    8  A    between atoms: C_9  and  O_12 
    9  A    between atoms: C_10  and  O_11 

>  <TORSDO>
F 9

$$$$
../results/processed/lowest_conf/7XP5/docked/s3.pdbqt
 OpenBabel07252416053D

 15 14  0  0  1  0  0  0  0  0999 V2000
  144.8300  132.7710  100.6000 C   0  0  1  0  0  3  0  0  0  0  0  0
  145.9010  133.0850   99.5840 C   0  0  0  0  0  0  0  0  0  0  0  0
  147.0920  132.8420   99.7330 O   0  0  0  0  0  0  0  0  0  0  0  0
  145.3670  133.7350   98.5130 O   0  0  0  0  0  0  0  0  0  0  0  0
  146.3370  134.3020   97.6250 C   0  0  0  0  0  2  0  0  0  0  0  0
  145.7590  134.2900   96.2230 C   0  0  0  0  0  1  0  0  0  0  0  0
  145.3280  131.6400  101.4970 C   0  0  0  0  0  2  0  0  0  0  0  0
  145.6090  130.4880  100.7030 O   0  0  0  0  0  0  0  0  0  0  0  0
  146.4960  130.1790  100.9590 H   0  0  0  0  0  0  0  0  0  0  0  0
  144.5270  134.0430  101.3930 C   0  0  1  0  0  3  0  0  0  0  0  0
  144.2580  133.7660  102.8800 C   0  0  0  0  0  2  0  0  0  0  0  0
  144.2100  135.0220  103.5630 O   0  0  0  0  0  0  0  0  0  0  0  0
  143.3890  135.4660  103.2800 H   0  0  0  0  0  0  0  0  0  0  0  0
  145.6470  134.9400  101.3170 O   0  0  0  0  0  0  0  0  0  0  0  0
  145.2800  135.7620  100.9310 H   0  0  0  0  0  0  0  0  0  0  0  0
  1 10  1  0  0  0  0
  1  7  1  1  0  0  0
  2  3  2  0  0  0  0
  2  1  1  0  0  0  0
  4  2  1  0  0  0  0
  5  4  1  0  0  0  0
  6  5  1  0  0  0  0
  8  9  1  0  0  0  0
  8  7  1  0  0  0  0
 10 11  1  1  0  0  0
 11 12  1  0  0  0  0
 13 12  1  0  0  0  0
 14 10  1  0  0  0  0
 15 14  1  0  0  0  0
M  END
>  <MODEL>
3

>  <REMARK>
 VINA RESULT:      -5.0      2.133      2.762
  9 active torsions:
  status: ('A' for Active; 'I' for Inactive)
    1  A    between atoms: C_2  and  O_3 
    2  A    between atoms: O_3  and  C_4 
    3  A    between atoms: C_4  and  C_6 
    4  A    between atoms: C_6  and  C_7 
    5  A    between atoms: C_6  and  C_9 
    6  A    between atoms: C_7  and  O_8 
    7  A    between atoms: C_9  and  C_10 
    8  A    between atoms: C_9  and  O_12 
    9  A    between atoms: C_10  and  O_11 

>  <TORSDO>
F 9

$$$$
../results/processed/lowest_conf/7XP5/docked/s3.pdbqt
 OpenBabel07252416053D

 15 14  0  0  1  0  0  0  0  0999 V2000
  146.7780  132.9100  100.2710 C   0  0  1  0  0  3  0  0  0  0  0  0
  145.5620  132.2100  100.8270 C   0  0  0  0  0  0  0  0  0  0  0  0
  144.7330  131.6150  100.1500 O   0  0  0  0  0  0  0  0  0  0  0  0
  145.4810  132.3910  102.1740 O   0  0  0  0  0  0  0  0  0  0  0  0
  144.1490  132.5920  102.6630 C   0  0  0  0  0  2  0  0  0  0  0  0
  143.9570  134.0740  102.9180 C   0  0  0  0  0  1  0  0  0  0  0  0
  147.6320  131.8850   99.5290 C   0  0  0  0  0  2  0  0  0  0  0  0
  147.4340  130.5930  100.1020 O   0  0  0  0  0  0  0  0  0  0  0  0
  146.5140  130.5640  100.4200 H   0  0  0  0  0  0  0  0  0  0  0  0
  146.3090  134.0410   99.3540 C   0  0  1  0  0  3  0  0  0  0  0  0
  146.5660  133.7460   97.8690 C   0  0  0  0  0  2  0  0  0  0  0  0
  145.3400  133.9470   97.1590 O   0  0  0  0  0  0  0  0  0  0  0  0
  145.4190  134.8000   96.6950 H   0  0  0  0  0  0  0  0  0  0  0  0
  144.8960  134.2410   99.5160 O   0  0  0  0  0  0  0  0  0  0  0  0
  144.7050  135.0670   99.0250 H   0  0  0  0  0  0  0  0  0  0  0  0
  1  7  1  6  0  0  0
  1  2  1  0  0  0  0
  2  4  1  0  0  0  0
  3  2  2  0  0  0  0
  4  5  1  0  0  0  0
  5  6  1  0  0  0  0
  7  8  1  0  0  0  0
  8  9  1  0  0  0  0
 10 11  1  6  0  0  0
 10 14  1  0  0  0  0
 10  1  1  0  0  0  0
 12 11  1  0  0  0  0
 13 12  1  0  0  0  0
 15 14  1  0  0  0  0
M  END
>  <MODEL>
4

>  <REMARK>
 VINA RESULT:      -4.9      1.966      3.694
  9 active torsions:
  status: ('A' for Active; 'I' for Inactive)
    1  A    between atoms: C_2  and  O_3 
    2  A    between atoms: O_3  and  C_4 
    3  A    between atoms: C_4  and  C_6 
    4  A    between atoms: C_6  and  C_7 
    5  A    between atoms: C_6  and  C_9 
    6  A    between atoms: C_7  and  O_8 
    7  A    between atoms: C_9  and  C_10 
    8  A    between atoms: C_9  and  O_12 
    9  A    between atoms: C_10  and  O_11 

>  <TORSDO>
F 9

$$$$
../results/processed/lowest_conf/7XP5/docked/s3.pdbqt
 OpenBabel07252416053D

 15 14  0  0  1  0  0  0  0  0999 V2000
  137.7110  143.1650  100.5060 C   0  0  1  0  0  3  0  0  0  0  0  0
  137.0160  141.9280   99.9910 C   0  0  0  0  0  0  0  0  0  0  0  0
  137.2250  140.7930  100.4010 O   0  0  0  0  0  0  0  0  0  0  0  0
  136.1780  142.2430   98.9650 O   0  0  0  0  0  0  0  0  0  0  0  0
  135.1060  143.1220   99.3290 C   0  0  0  0  0  2  0  0  0  0  0  0
  133.9540  142.2780   99.8360 C   0  0  0  0  0  1  0  0  0  0  0  0
  138.0850  142.9390  101.9690 C   0  0  0  0  0  2  0  0  0  0  0  0
  137.0090  142.2870  102.6420 O   0  0  0  0  0  0  0  0  0  0  0  0
  136.4630  141.8640  101.9560 H   0  0  0  0  0  0  0  0  0  0  0  0
  138.9380  143.4310   99.6330 C   0  0  1  0  0  3  0  0  0  0  0  0
  140.2300  143.5700  100.4500 C   0  0  0  0  0  2  0  0  0  0  0  0
  140.6730  144.9270  100.3530 O   0  0  0  0  0  0  0  0  0  0  0  0
  141.5170  144.9840  100.8360 H   0  0  0  0  0  0  0  0  0  0  0  0
  139.1240  142.3410   98.7150 O   0  0  0  0  0  0  0  0  0  0  0  0
  139.5210  141.6270   99.2550 H   0  0  0  0  0  0  0  0  0  0  0  0
  1  7  1  1  0  0  0
  2  3  2  0  0  0  0
  2  1  1  0  0  0  0
  4  5  1  0  0  0  0
  4  2  1  0  0  0  0
  5  6  1  0  0  0  0
  7  8  1  0  0  0  0
  9  8  1  0  0  0  0
 10 11  1  1  0  0  0
 10  1  1  0  0  0  0
 12 11  1  0  0  0  0
 12 13  1  0  0  0  0
 14 15  1  0  0  0  0
 14 10  1  0  0  0  0
M  END
>  <MODEL>
5

>  <REMARK>
 VINA RESULT:      -4.8     10.949     12.258
  9 active torsions:
  status: ('A' for Active; 'I' for Inactive)
    1  A    between atoms: C_2  and  O_3 
    2  A    between atoms: O_3  and  C_4 
    3  A    between atoms: C_4  and  C_6 
    4  A    between atoms: C_6  and  C_7 
    5  A    between atoms: C_6  and  C_9 
    6  A    between atoms: C_7  and  O_8 
    7  A    between atoms: C_9  and  C_10 
    8  A    between atoms: C_9  and  O_12 
    9  A    between atoms: C_10  and  O_11 

>  <TORSDO>
F 9

$$$$
../results/processed/lowest_conf/7XP5/docked/s3.pdbqt
 OpenBabel07252416053D

 15 14  0  0  1  0  0  0  0  0999 V2000
  146.1540  133.3190  101.3800 C   0  0  1  0  0  3  0  0  0  0  0  0
  146.1660  132.7170   99.9960 C   0  0  0  0  0  0  0  0  0  0  0  0
  145.5020  133.1300   99.0540 O   0  0  0  0  0  0  0  0  0  0  0  0
  146.9640  131.6140   99.9620 O   0  0  0  0  0  0  0  0  0  0  0  0
  148.0950  131.7320   99.0910 C   0  0  0  0  0  2  0  0  0  0  0  0
  148.9310  130.4740   99.2280 C   0  0  0  0  0  1  0  0  0  0  0  0
  147.1970  134.4330  101.4350 C   0  0  0  0  0  2  0  0  0  0  0  0
  147.3750  134.8560  102.7860 O   0  0  0  0  0  0  0  0  0  0  0  0
  147.0870  134.1170  103.3520 H   0  0  0  0  0  0  0  0  0  0  0  0
  144.7440  133.8360  101.6710 C   0  0  1  0  0  3  0  0  0  0  0  0
  144.3550  133.6980  103.1500 C   0  0  0  0  0  2  0  0  0  0  0  0
  144.3730  135.0030  103.7370 O   0  0  0  0  0  0  0  0  0  0  0  0
  144.6880  134.8960  104.6530 H   0  0  0  0  0  0  0  0  0  0  0  0
  144.6600  135.2290  101.3310 O   0  0  0  0  0  0  0  0  0  0  0  0
  143.9810  135.2710  100.6260 H   0  0  0  0  0  0  0  0  0  0  0  0
  1  7  1  6  0  0  0
  1 10  1  0  0  0  0
  2  1  1  0  0  0  0
  3  2  2  0  0  0  0
  4  2  1  0  0  0  0
  5  6  1  0  0  0  0
  5  4  1  0  0  0  0
  7  8  1  0  0  0  0
  8  9  1  0  0  0  0
 10 11  1  1  0  0  0
 11 12  1  0  0  0  0
 12 13  1  0  0  0  0
 14 10  1  0  0  0  0
 15 14  1  0  0  0  0
M  END
>  <MODEL>
6

>  <REMARK>
 VINA RESULT:      -4.6      1.900      2.985
  9 active torsions:
  status: ('A' for Active; 'I' for Inactive)
    1  A    between atoms: C_2  and  O_3 
    2  A    between atoms: O_3  and  C_4 
    3  A    between atoms: C_4  and  C_6 
    4  A    between atoms: C_6  and  C_7 
    5  A    between atoms: C_6  and  C_9 
    6  A    between atoms: C_7  and  O_8 
    7  A    between atoms: C_9  and  C_10 
    8  A    between atoms: C_9  and  O_12 
    9  A    between atoms: C_10  and  O_11 

>  <TORSDO>
F 9

$$$$
../results/processed/lowest_conf/7XP5/docked/s3.pdbqt
 OpenBabel07252416053D

 15 14  0  0  1  0  0  0  0  0999 V2000
  139.1310  143.3630   99.5010 C   0  0  1  0  0  3  0  0  0  0  0  0
  139.0200  144.3590   98.3730 C   0  0  0  0  0  0  0  0  0  0  0  0
  138.2100  145.2770   98.3340 O   0  0  0  0  0  0  0  0  0  0  0  0
  139.8980  144.0540   97.3780 O   0  0  0  0  0  0  0  0  0  0  0  0
  139.6910  142.7650   96.7850 C   0  0  0  0  0  2  0  0  0  0  0  0
  138.5810  142.8880   95.7610 C   0  0  0  0  0  1  0  0  0  0  0  0
  140.3610  143.7100  100.3360 C   0  0  0  0  0  2  0  0  0  0  0  0
  140.6210  145.1100  100.2450 O   0  0  0  0  0  0  0  0  0  0  0  0
  140.6540  145.4500  101.1570 H   0  0  0  0  0  0  0  0  0  0  0  0
  137.8430  143.4160  100.3240 C   0  0  1  0  0  3  0  0  0  0  0  0
  137.0590  142.0960  100.2850 C   0  0  0  0  0  2  0  0  0  0  0  0
  137.6980  141.2270   99.3460 O   0  0  0  0  0  0  0  0  0  0  0  0
  138.0930  140.4990   99.8600 H   0  0  0  0  0  0  0  0  0  0  0  0
  138.1580  143.6910  101.6980 O   0  0  0  0  0  0  0  0  0  0  0  0
  138.8410  144.3920  101.6610 H   0  0  0  0  0  0  0  0  0  0  0  0
  1 10  1  0  0  0  0
  1  7  1  1  0  0  0
  2  1  1  0  0  0  0
  3  2  2  0  0  0  0
  4  2  1  0  0  0  0
  5  4  1  0  0  0  0
  6  5  1  0  0  0  0
  8  7  1  0  0  0  0
  8  9  1  0  0  0  0
 10 11  1  1  0  0  0
 10 14  1  0  0  0  0
 12 13  1  0  0  0  0
 12 11  1  0  0  0  0
 15 14  1  0  0  0  0
M  END
>  <MODEL>
7

>  <REMARK>
 VINA RESULT:      -4.6     11.047     12.118
  9 active torsions:
  status: ('A' for Active; 'I' for Inactive)
    1  A    between atoms: C_2  and  O_3 
    2  A    between atoms: O_3  and  C_4 
    3  A    between atoms: C_4  and  C_6 
    4  A    between atoms: C_6  and  C_7 
    5  A    between atoms: C_6  and  C_9 
    6  A    between atoms: C_7  and  O_8 
    7  A    between atoms: C_9  and  C_10 
    8  A    between atoms: C_9  and  O_12 
    9  A    between atoms: C_10  and  O_11 

>  <TORSDO>
F 9

$$$$
../results/processed/lowest_conf/7XP5/docked/s3.pdbqt
 OpenBabel07252416053D

 15 14  0  0  1  0  0  0  0  0999 V2000
  137.6680  143.3610  100.0380 C   0  0  1  0  0  3  0  0  0  0  0  0
  136.6270  143.2930   98.9470 C   0  0  0  0  0  0  0  0  0  0  0  0
  136.8770  143.2940   97.7490 O   0  0  0  0  0  0  0  0  0  0  0  0
  135.3740  143.3000   99.4810 O   0  0  0  0  0  0  0  0  0  0  0  0
  134.4350  142.4680   98.7900 C   0  0  0  0  0  2  0  0  0  0  0  0
  133.1950  143.2910   98.5030 C   0  0  0  0  0  1  0  0  0  0  0  0
  137.5760  142.0880  100.8760 C   0  0  0  0  0  2  0  0  0  0  0  0
  137.3270  140.9710  100.0230 O   0  0  0  0  0  0  0  0  0  0  0  0
  137.0950  141.3310   99.1490 H   0  0  0  0  0  0  0  0  0  0  0  0
  139.0420  143.5240   99.3880 C   0  0  1  0  0  3  0  0  0  0  0  0
  140.1750  143.6500  100.4170 C   0  0  0  0  0  2  0  0  0  0  0  0
  140.7050  144.9760  100.3330 O   0  0  0  0  0  0  0  0  0  0  0  0
  140.0350  145.5200   99.8800 H   0  0  0  0  0  0  0  0  0  0  0  0
  139.3290  142.3800   98.5680 O   0  0  0  0  0  0  0  0  0  0  0  0
  140.1710  142.6020   98.1190 H   0  0  0  0  0  0  0  0  0  0  0  0
  1  7  1  6  0  0  0
  2  4  1  0  0  0  0
  2  1  1  0  0  0  0
  3  2  2  0  0  0  0
  5  4  1  0  0  0  0
  6  5  1  0  0  0  0
  8  7  1  0  0  0  0
  9  8  1  0  0  0  0
 10  1  1  0  0  0  0
 10 11  1  1  0  0  0
 12 11  1  0  0  0  0
 13 12  1  0  0  0  0
 14 10  1  0  0  0  0
 15 14  1  0  0  0  0
M  END
>  <MODEL>
8

>  <REMARK>
 VINA RESULT:      -4.5     10.965     12.787
  9 active torsions:
  status: ('A' for Active; 'I' for Inactive)
    1  A    between atoms: C_2  and  O_3 
    2  A    between atoms: O_3  and  C_4 
    3  A    between atoms: C_4  and  C_6 
    4  A    between atoms: C_6  and  C_7 
    5  A    between atoms: C_6  and  C_9 
    6  A    between atoms: C_7  and  O_8 
    7  A    between atoms: C_9  and  C_10 
    8  A    between atoms: C_9  and  O_12 
    9  A    between atoms: C_10  and  O_11 

>  <TORSDO>
F 9

$$$$
../results/processed/lowest_conf/7XP5/docked/s3.pdbqt
 OpenBabel07252416053D

 15 14  0  0  1  0  0  0  0  0999 V2000
  139.5030  143.5090   98.4280 C   0  0  1  0  0  3  0  0  0  0  0  0
  139.3940  142.6330   97.2040 C   0  0  0  0  0  0  0  0  0  0  0  0
  139.7330  141.4580   97.1590 O   0  0  0  0  0  0  0  0  0  0  0  0
  138.9300  143.3500   96.1430 O   0  0  0  0  0  0  0  0  0  0  0  0
  137.9810  142.6510   95.3290 C   0  0  0  0  0  2  0  0  0  0  0  0
  136.5890  143.0140   95.8060 C   0  0  0  0  0  1  0  0  0  0  0  0
  139.7050  144.9530   97.9750 C   0  0  0  0  0  2  0  0  0  0  0  0
  140.2700  145.7150   99.0410 O   0  0  0  0  0  0  0  0  0  0  0  0
  139.6140  146.3930   99.2810 H   0  0  0  0  0  0  0  0  0  0  0  0
  138.2320  143.3400   99.2610 C   0  0  1  0  0  3  0  0  0  0  0  0
  138.5230  143.1180  100.7520 C   0  0  0  0  0  2  0  0  0  0  0  0
  139.9320  143.2590  100.9540 O   0  0  0  0  0  0  0  0  0  0  0  0
  140.3440  143.2760  100.0710 H   0  0  0  0  0  0  0  0  0  0  0  0
  137.4200  144.5210   99.1510 O   0  0  0  0  0  0  0  0  0  0  0  0
  137.7960  145.0100   98.3900 H   0  0  0  0  0  0  0  0  0  0  0  0
  1  7  1  6  0  0  0
  1 10  1  0  0  0  0
  2  1  1  0  0  0  0
  3  2  2  0  0  0  0
  4  2  1  0  0  0  0
  5  6  1  0  0  0  0
  5  4  1  0  0  0  0
  7  8  1  0  0  0  0
  8  9  1  0  0  0  0
 10 11  1  1  0  0  0
 11 12  1  0  0  0  0
 13 12  1  0  0  0  0
 14 10  1  0  0  0  0
 15 14  1  0  0  0  0
M  END
>  <MODEL>
9

>  <REMARK>
 VINA RESULT:      -4.5     11.015     12.391
  9 active torsions:
  status: ('A' for Active; 'I' for Inactive)
    1  A    between atoms: C_2  and  O_3 
    2  A    between atoms: O_3  and  C_4 
    3  A    between atoms: C_4  and  C_6 
    4  A    between atoms: C_6  and  C_7 
    5  A    between atoms: C_6  and  C_9 
    6  A    between atoms: C_7  and  O_8 
    7  A    between atoms: C_9  and  C_10 
    8  A    between atoms: C_9  and  O_12 
    9  A    between atoms: C_10  and  O_11 

>  <TORSDO>
F 9

$$$$
