MODEL 1
REMARK VINA RESULT:      -5.9      0.000      0.000
REMARK  10 active torsions:
REMARK  status: ('A' for Active; 'I' for Inactive)
REMARK    1  A    between atoms: O_1  and  C_2 
REMARK    2  A    between atoms: C_2  and  C_3 
REMARK    3  A    between atoms: C_3  and  O_4 
REMARK    4  A    between atoms: C_3  and  C_14 
REMARK    5  A    between atoms: O_4  and  C_5 
REMARK    6  A    between atoms: C_6  and  O_7 
REMARK    7  A    between atoms: C_8  and  O_9 
REMARK    8  A    between atoms: C_10  and  O_11 
REMARK    9  A    between atoms: C_12  and  O_13 
REMARK   10  A    between atoms: C_14  and  O_15 
ROOT
ATOM      1  C   UNL d   1     146.338 132.998 100.256  0.00  0.00     0.184 C 
ATOM      2  C   UNL d   1     145.827 131.764 101.030  0.00  0.00     0.181 C 
ATOM      3  C   UNL d   1     144.852 132.336 102.060  0.00  0.00     0.180 C 
ATOM      4  C   UNL d   1     145.550 133.630 102.463  0.00  0.00     0.180 C 
ATOM      5  C   UNL d   1     145.925 134.215 101.106  0.00  0.00     0.181 C 
ENDROOT
BRANCH   1   6
ATOM      6  O   UNL d   1     145.687 133.108  98.988  0.00  0.00    -0.371 OA
BRANCH   6   7
ATOM      7  C   UNL d   1     146.393 133.940  98.052  0.00  0.00     0.169 C 
BRANCH   7   8
ATOM      8  C   UNL d   1     147.358 133.016  97.308  0.00  0.00     0.198 C 
BRANCH   8   9
ATOM      9  O   UNL d   1     148.078 133.765  96.325  0.00  0.00    -0.398 OA
ATOM     10  H   UNL d   1     148.468 133.108  95.704  0.00  0.00     0.209 HD
ENDBRANCH   8   9
ENDBRANCH   7   8
BRANCH   7  11
ATOM     11  C   UNL d   1     145.386 134.591  97.098  0.00  0.00     0.198 C 
BRANCH  11  12
ATOM     12  O   UNL d   1     145.121 133.732  95.980  0.00  0.00    -0.398 OA
ATOM     13  H   UNL d   1     144.148 133.690  95.900  0.00  0.00     0.209 HD
ENDBRANCH  11  12
ENDBRANCH   7  11
ENDBRANCH   6   7
ENDBRANCH   1   6
BRANCH   2  14
ATOM     14  O   UNL d   1     145.223 130.776 100.196  0.00  0.00    -0.390 OA
ATOM     15  H   UNL d   1     145.355 129.926 100.659  0.00  0.00     0.210 HD
ENDBRANCH   2  14
BRANCH   5  16
ATOM     16  O   UNL d   1     146.983 135.164 101.226  0.00  0.00    -0.390 OA
ATOM     17  H   UNL d   1     147.658 134.731 101.795  0.00  0.00     0.210 HD
ENDBRANCH   5  16
BRANCH   3  18
ATOM     18  O   UNL d   1     144.686 131.449 103.162  0.00  0.00    -0.390 OA
ATOM     19  H   UNL d   1     143.822 131.016 103.018  0.00  0.00     0.210 HD
ENDBRANCH   3  18
BRANCH   4  20
ATOM     20  O   UNL d   1     144.675 134.480 103.199  0.00  0.00    -0.390 OA
ATOM     21  H   UNL d   1     145.159 134.710 104.016  0.00  0.00     0.210 HD
ENDBRANCH   4  20
TORSDOF 10
ENDMDL
MODEL 2
REMARK VINA RESULT:      -5.7      2.004      2.906
REMARK  10 active torsions:
REMARK  status: ('A' for Active; 'I' for Inactive)
REMARK    1  A    between atoms: O_1  and  C_2 
REMARK    2  A    between atoms: C_2  and  C_3 
REMARK    3  A    between atoms: C_3  and  O_4 
REMARK    4  A    between atoms: C_3  and  C_14 
REMARK    5  A    between atoms: O_4  and  C_5 
REMARK    6  A    between atoms: C_6  and  O_7 
REMARK    7  A    between atoms: C_8  and  O_9 
REMARK    8  A    between atoms: C_10  and  O_11 
REMARK    9  A    between atoms: C_12  and  O_13 
REMARK   10  A    between atoms: C_14  and  O_15 
ROOT
ATOM      1  C   UNL d   1     144.767 132.609 100.390  0.00  0.00     0.184 C 
ATOM      2  C   UNL d   1     143.834 133.801 100.690  0.00  0.00     0.181 C 
ATOM      3  C   UNL d   1     144.411 134.427 101.960  0.00  0.00     0.180 C 
ATOM      4  C   UNL d   1     144.848 133.195 102.744  0.00  0.00     0.180 C 
ATOM      5  C   UNL d   1     145.588 132.395 101.677  0.00  0.00     0.181 C 
ENDROOT
BRANCH   1   6
ATOM      6  O   UNL d   1     145.681 132.930  99.338  0.00  0.00    -0.371 OA
BRANCH   6   7
ATOM      7  C   UNL d   1     147.037 133.091  99.786  0.00  0.00     0.169 C 
BRANCH   7   8
ATOM      8  C   UNL d   1     147.855 132.027  99.052  0.00  0.00     0.198 C 
BRANCH   8   9
ATOM      9  O   UNL d   1     147.941 130.849  99.858  0.00  0.00    -0.398 OA
ATOM     10  H   UNL d   1     147.304 130.203  99.476  0.00  0.00     0.209 HD
ENDBRANCH   8   9
ENDBRANCH   7   8
BRANCH   7  11
ATOM     11  C   UNL d   1     147.515 134.506  99.445  0.00  0.00     0.198 C 
BRANCH  11  12
ATOM     12  O   UNL d   1     146.547 135.184  98.631  0.00  0.00    -0.398 OA
ATOM     13  H   UNL d   1     146.595 136.125  98.886  0.00  0.00     0.209 HD
ENDBRANCH  11  12
ENDBRANCH   7  11
ENDBRANCH   6   7
ENDBRANCH   1   6
BRANCH   2  14
ATOM     14  O   UNL d   1     143.737 134.735  99.616  0.00  0.00    -0.390 OA
ATOM     15  H   UNL d   1     142.819 134.663  99.289  0.00  0.00     0.210 HD
ENDBRANCH   2  14
BRANCH   5  16
ATOM     16  O   UNL d   1     145.674 131.017 102.031  0.00  0.00    -0.390 OA
ATOM     17  H   UNL d   1     146.143 130.584 101.283  0.00  0.00     0.210 HD
ENDBRANCH   5  16
BRANCH   3  18
ATOM     18  O   UNL d   1     143.426 135.186 102.655  0.00  0.00    -0.390 OA
ATOM     19  H   UNL d   1     143.783 135.311 103.556  0.00  0.00     0.210 HD
ENDBRANCH   3  18
BRANCH   4  20
ATOM     20  O   UNL d   1     145.688 133.551 103.838  0.00  0.00    -0.390 OA
ATOM     21  H   UNL d   1     146.595 133.579 103.475  0.00  0.00     0.210 HD
ENDBRANCH   4  20
TORSDOF 10
ENDMDL
MODEL 3
REMARK VINA RESULT:      -5.6      1.464      5.607
REMARK  10 active torsions:
REMARK  status: ('A' for Active; 'I' for Inactive)
REMARK    1  A    between atoms: O_1  and  C_2 
REMARK    2  A    between atoms: C_2  and  C_3 
REMARK    3  A    between atoms: C_3  and  O_4 
REMARK    4  A    between atoms: C_3  and  C_14 
REMARK    5  A    between atoms: O_4  and  C_5 
REMARK    6  A    between atoms: C_6  and  O_7 
REMARK    7  A    between atoms: C_8  and  O_9 
REMARK    8  A    between atoms: C_10  and  O_11 
REMARK    9  A    between atoms: C_12  and  O_13 
REMARK   10  A    between atoms: C_14  and  O_15 
ROOT
ATOM      1  C   UNL d   1     146.045 134.297  97.839  0.00  0.00     0.184 C 
ATOM      2  C   UNL d   1     145.152 135.266  97.034  0.00  0.00     0.181 C 
ATOM      3  C   UNL d   1     144.916 134.551  95.703  0.00  0.00     0.180 C 
ATOM      4  C   UNL d   1     146.272 133.899  95.455  0.00  0.00     0.180 C 
ATOM      5  C   UNL d   1     146.567 133.272  96.814  0.00  0.00     0.181 C 
ENDROOT
BRANCH   1   6
ATOM      6  O   UNL d   1     145.275 133.588  98.813  0.00  0.00    -0.371 OA
BRANCH   6   7
ATOM      7  C   UNL d   1     146.076 132.948  99.821  0.00  0.00     0.169 C 
BRANCH   7   8
ATOM      8  C   UNL d   1     146.700 134.076 100.645  0.00  0.00     0.198 C 
BRANCH   8   9
ATOM      9  O   UNL d   1     145.667 134.822 101.296  0.00  0.00    -0.398 OA
ATOM     10  H   UNL d   1     145.127 135.230 100.582  0.00  0.00     0.209 HD
ENDBRANCH   8   9
ENDBRANCH   7   8
BRANCH   7  11
ATOM     11  C   UNL d   1     145.181 132.050 100.680  0.00  0.00     0.198 C 
BRANCH  11  12
ATOM     12  O   UNL d   1     145.235 130.692 100.220  0.00  0.00    -0.398 OA
ATOM     13  H   UNL d   1     144.312 130.436 100.032  0.00  0.00     0.209 HD
ENDBRANCH  11  12
ENDBRANCH   7  11
ENDBRANCH   6   7
ENDBRANCH   1   6
BRANCH   2  14
ATOM     14  O   UNL d   1     143.934 135.605  97.695  0.00  0.00    -0.390 OA
ATOM     15  H   UNL d   1     143.565 134.758  98.014  0.00  0.00     0.210 HD
ENDBRANCH   2  14
BRANCH   5  16
ATOM     16  O   UNL d   1     147.961 133.019  96.975  0.00  0.00    -0.390 OA
ATOM     17  H   UNL d   1     148.322 132.956  96.063  0.00  0.00     0.210 HD
ENDBRANCH   5  16
BRANCH   3  18
ATOM     18  O   UNL d   1     144.568 135.474  94.676  0.00  0.00    -0.390 OA
ATOM     19  H   UNL d   1     143.664 135.774  94.893  0.00  0.00     0.210 HD
ENDBRANCH   3  18
BRANCH   4  20
ATOM     20  O   UNL d   1     146.196 132.931  94.413  0.00  0.00    -0.390 OA
ATOM     21  H   UNL d   1     146.257 132.062  94.857  0.00  0.00     0.210 HD
ENDBRANCH   4  20
TORSDOF 10
ENDMDL
MODEL 4
REMARK VINA RESULT:      -5.3     12.722     14.138
REMARK  10 active torsions:
REMARK  status: ('A' for Active; 'I' for Inactive)
REMARK    1  A    between atoms: O_1  and  C_2 
REMARK    2  A    between atoms: C_2  and  C_3 
REMARK    3  A    between atoms: C_3  and  O_4 
REMARK    4  A    between atoms: C_3  and  C_14 
REMARK    5  A    between atoms: O_4  and  C_5 
REMARK    6  A    between atoms: C_6  and  O_7 
REMARK    7  A    between atoms: C_8  and  O_9 
REMARK    8  A    between atoms: C_10  and  O_11 
REMARK    9  A    between atoms: C_12  and  O_13 
REMARK   10  A    between atoms: C_14  and  O_15 
ROOT
ATOM      1  C   UNL d   1     136.877 142.782  98.641  0.00  0.00     0.184 C 
ATOM      2  C   UNL d   1     135.826 143.479  97.751  0.00  0.00     0.181 C 
ATOM      3  C   UNL d   1     134.531 143.407  98.561  0.00  0.00     0.180 C 
ATOM      4  C   UNL d   1     134.638 142.026  99.198  0.00  0.00     0.180 C 
ATOM      5  C   UNL d   1     136.070 142.037  99.722  0.00  0.00     0.181 C 
ENDROOT
BRANCH   1   6
ATOM      6  O   UNL d   1     137.705 143.744  99.298  0.00  0.00    -0.371 OA
BRANCH   6   7
ATOM      7  C   UNL d   1     139.107 143.570  99.034  0.00  0.00     0.169 C 
BRANCH   7   8
ATOM      8  C   UNL d   1     139.507 144.711  98.097  0.00  0.00     0.198 C 
BRANCH   8   9
ATOM      9  O   UNL d   1     138.768 145.889  98.435  0.00  0.00    -0.398 OA
ATOM     10  H   UNL d   1     137.846 145.596  98.616  0.00  0.00     0.209 HD
ENDBRANCH   8   9
ENDBRANCH   7   8
BRANCH   7  11
ATOM     11  C   UNL d   1     139.879 143.627 100.355  0.00  0.00     0.198 C 
BRANCH  11  12
ATOM     12  O   UNL d   1     140.703 144.801 100.410  0.00  0.00    -0.398 OA
ATOM     13  H   UNL d   1     141.541 144.560  99.970  0.00  0.00     0.209 HD
ENDBRANCH  11  12
ENDBRANCH   7  11
ENDBRANCH   6   7
ENDBRANCH   1   6
BRANCH   2  14
ATOM     14  O   UNL d   1     136.174 144.816  97.395  0.00  0.00    -0.390 OA
ATOM     15  H   UNL d   1     137.136 144.800  97.224  0.00  0.00     0.210 HD
ENDBRANCH   2  14
BRANCH   5  16
ATOM     16  O   UNL d   1     136.555 140.712  99.931  0.00  0.00    -0.390 OA
ATOM     17  H   UNL d   1     136.648 140.619 100.905  0.00  0.00     0.210 HD
ENDBRANCH   5  16
BRANCH   3  18
ATOM     18  O   UNL d   1     133.388 143.524  97.719  0.00  0.00    -0.390 OA
ATOM     19  H   UNL d   1     132.692 143.918  98.281  0.00  0.00     0.210 HD
ENDBRANCH   3  18
BRANCH   4  20
ATOM     20  O   UNL d   1     133.679 141.861 100.237  0.00  0.00    -0.390 OA
ATOM     21  H   UNL d   1     134.175 141.503 100.999  0.00  0.00     0.210 HD
ENDBRANCH   4  20
TORSDOF 10
ENDMDL
MODEL 5
REMARK VINA RESULT:      -5.2     11.576     13.537
REMARK  10 active torsions:
REMARK  status: ('A' for Active; 'I' for Inactive)
REMARK    1  A    between atoms: O_1  and  C_2 
REMARK    2  A    between atoms: C_2  and  C_3 
REMARK    3  A    between atoms: C_3  and  O_4 
REMARK    4  A    between atoms: C_3  and  C_14 
REMARK    5  A    between atoms: O_4  and  C_5 
REMARK    6  A    between atoms: C_6  and  O_7 
REMARK    7  A    between atoms: C_8  and  O_9 
REMARK    8  A    between atoms: C_10  and  O_11 
REMARK    9  A    between atoms: C_12  and  O_13 
REMARK   10  A    between atoms: C_14  and  O_15 
ROOT
ATOM      1  C   UNL d   1     138.888 143.473  98.550  0.00  0.00     0.184 C 
ATOM      2  C   UNL d   1     139.743 144.694  98.150  0.00  0.00     0.181 C 
ATOM      3  C   UNL d   1     139.912 144.562  96.636  0.00  0.00     0.180 C 
ATOM      4  C   UNL d   1     140.068 143.055  96.470  0.00  0.00     0.180 C 
ATOM      5  C   UNL d   1     138.925 142.529  97.332  0.00  0.00     0.181 C 
ENDROOT
BRANCH   1   6
ATOM      6  O   UNL d   1     137.527 143.855  98.766  0.00  0.00    -0.371 OA
BRANCH   6   7
ATOM      7  C   UNL d   1     136.970 143.327  99.982  0.00  0.00     0.169 C 
BRANCH   7   8
ATOM      8  C   UNL d   1     136.145 142.105  99.575  0.00  0.00     0.198 C 
BRANCH   8   9
ATOM      9  O   UNL d   1     136.889 140.913  99.844  0.00  0.00    -0.398 OA
ATOM     10  H   UNL d   1     136.530 140.545 100.684  0.00  0.00     0.209 HD
ENDBRANCH   8   9
ENDBRANCH   7   8
BRANCH   7  11
ATOM     11  C   UNL d   1     138.108 142.949 100.934  0.00  0.00     0.198 C 
BRANCH  11  12
ATOM     12  O   UNL d   1     137.975 143.641 102.184  0.00  0.00    -0.398 OA
ATOM     13  H   UNL d   1     137.026 143.602 102.411  0.00  0.00     0.209 HD
ENDBRANCH  11  12
ENDBRANCH   7  11
ENDBRANCH   6   7
ENDBRANCH   1   6
BRANCH   2  14
ATOM     14  O   UNL d   1     139.168 145.944  98.528  0.00  0.00    -0.390 OA
ATOM     15  H   UNL d   1     138.763 146.303  97.715  0.00  0.00     0.210 HD
ENDBRANCH   2  14
BRANCH   5  16
ATOM     16  O   UNL d   1     139.147 141.174  97.716  0.00  0.00    -0.390 OA
ATOM     17  H   UNL d   1     138.271 140.734  97.637  0.00  0.00     0.210 HD
ENDBRANCH   5  16
BRANCH   3  18
ATOM     18  O   UNL d   1     141.059 145.274  96.181  0.00  0.00    -0.390 OA
ATOM     19  H   UNL d   1     140.775 146.206  96.111  0.00  0.00     0.210 HD
ENDBRANCH   3  18
BRANCH   4  20
ATOM     20  O   UNL d   1     139.941 142.670  95.105  0.00  0.00    -0.390 OA
ATOM     21  H   UNL d   1     140.789 142.242  94.873  0.00  0.00     0.210 HD
ENDBRANCH   4  20
TORSDOF 10
ENDMDL
MODEL 6
REMARK VINA RESULT:      -5.1     11.732     13.216
REMARK  10 active torsions:
REMARK  status: ('A' for Active; 'I' for Inactive)
REMARK    1  A    between atoms: O_1  and  C_2 
REMARK    2  A    between atoms: C_2  and  C_3 
REMARK    3  A    between atoms: C_3  and  O_4 
REMARK    4  A    between atoms: C_3  and  C_14 
REMARK    5  A    between atoms: O_4  and  C_5 
REMARK    6  A    between atoms: C_6  and  O_7 
REMARK    7  A    between atoms: C_8  and  O_9 
REMARK    8  A    between atoms: C_10  and  O_11 
REMARK    9  A    between atoms: C_12  and  O_13 
REMARK   10  A    between atoms: C_14  and  O_15 
ROOT
ATOM      1  C   UNL d   1     138.679 141.962  97.678  0.00  0.00     0.184 C 
ATOM      2  C   UNL d   1     138.087 142.294  96.292  0.00  0.00     0.181 C 
ATOM      3  C   UNL d   1     136.802 143.064  96.600  0.00  0.00     0.180 C 
ATOM      4  C   UNL d   1     136.283 142.326  97.828  0.00  0.00     0.180 C 
ATOM      5  C   UNL d   1     137.542 142.227  98.684  0.00  0.00     0.181 C 
ENDROOT
BRANCH   1   6
ATOM      6  O   UNL d   1     139.758 142.845  97.995  0.00  0.00    -0.371 OA
BRANCH   6   7
ATOM      7  C   UNL d   1     139.374 143.934  98.852  0.00  0.00     0.169 C 
BRANCH   7   8
ATOM      8  C   UNL d   1     140.238 143.809 100.108  0.00  0.00     0.198 C 
BRANCH   8   9
ATOM      9  O   UNL d   1     140.836 145.074 100.406  0.00  0.00    -0.398 OA
ATOM     10  H   UNL d   1     140.827 145.590  99.567  0.00  0.00     0.209 HD
ENDBRANCH   8   9
ENDBRANCH   7   8
BRANCH   7  11
ATOM     11  C   UNL d   1     139.622 145.258  98.124  0.00  0.00     0.198 C 
BRANCH  11  12
ATOM     12  O   UNL d   1     140.382 145.043  96.926  0.00  0.00    -0.398 OA
ATOM     13  H   UNL d   1     140.528 144.079  96.872  0.00  0.00     0.209 HD
ENDBRANCH  11  12
ENDBRANCH   7  11
ENDBRANCH   6   7
ENDBRANCH   1   6
BRANCH   2  14
ATOM     14  O   UNL d   1     138.976 143.028  95.451  0.00  0.00    -0.390 OA
ATOM     15  H   UNL d   1     139.874 142.821  95.776  0.00  0.00     0.210 HD
ENDBRANCH   2  14
BRANCH   5  16
ATOM     16  O   UNL d   1     137.430 141.183  99.649  0.00  0.00    -0.390 OA
ATOM     17  H   UNL d   1     137.160 140.386  99.141  0.00  0.00     0.210 HD
ENDBRANCH   5  16
BRANCH   3  18
ATOM     18  O   UNL d   1     135.889 143.001  95.509  0.00  0.00    -0.390 OA
ATOM     19  H   UNL d   1     135.199 143.663  95.709  0.00  0.00     0.210 HD
ENDBRANCH   3  18
BRANCH   4  20
ATOM     20  O   UNL d   1     135.245 143.059  98.470  0.00  0.00    -0.390 OA
ATOM     21  H   UNL d   1     135.419 142.977  99.428  0.00  0.00     0.210 HD
ENDBRANCH   4  20
TORSDOF 10
ENDMDL
MODEL 7
REMARK VINA RESULT:      -5.0     11.940     13.315
REMARK  10 active torsions:
REMARK  status: ('A' for Active; 'I' for Inactive)
REMARK    1  A    between atoms: O_1  and  C_2 
REMARK    2  A    between atoms: C_2  and  C_3 
REMARK    3  A    between atoms: C_3  and  O_4 
REMARK    4  A    between atoms: C_3  and  C_14 
REMARK    5  A    between atoms: O_4  and  C_5 
REMARK    6  A    between atoms: C_6  and  O_7 
REMARK    7  A    between atoms: C_8  and  O_9 
REMARK    8  A    between atoms: C_10  and  O_11 
REMARK    9  A    between atoms: C_12  and  O_13 
REMARK   10  A    between atoms: C_14  and  O_15 
ROOT
ATOM      1  C   UNL d   1     138.185 143.651  98.149  0.00  0.00     0.184 C 
ATOM      2  C   UNL d   1     138.052 142.795  96.872  0.00  0.00     0.181 C 
ATOM      3  C   UNL d   1     139.418 142.904  96.195  0.00  0.00     0.180 C 
ATOM      4  C   UNL d   1     139.786 144.358  96.466  0.00  0.00     0.180 C 
ATOM      5  C   UNL d   1     139.466 144.486  97.952  0.00  0.00     0.181 C 
ENDROOT
BRANCH   1   6
ATOM      6  O   UNL d   1     138.376 142.823  99.299  0.00  0.00    -0.371 OA
BRANCH   6   7
ATOM      7  C   UNL d   1     137.487 143.136 100.385  0.00  0.00     0.169 C 
BRANCH   7   8
ATOM      8  C   UNL d   1     136.344 142.124 100.301  0.00  0.00     0.198 C 
BRANCH   8   9
ATOM      9  O   UNL d   1     136.870 140.830  99.990  0.00  0.00    -0.398 OA
ATOM     10  H   UNL d   1     137.765 140.789 100.397  0.00  0.00     0.209 HD
ENDBRANCH   8   9
ENDBRANCH   7   8
BRANCH   7  11
ATOM     11  C   UNL d   1     138.249 143.018 101.708  0.00  0.00     0.198 C 
BRANCH  11  12
ATOM     12  O   UNL d   1     139.666 143.015 101.478  0.00  0.00    -0.398 OA
ATOM     13  H   UNL d   1     139.829 143.702 100.804  0.00  0.00     0.209 HD
ENDBRANCH  11  12
ENDBRANCH   7  11
ENDBRANCH   6   7
ENDBRANCH   1   6
BRANCH   2  14
ATOM     14  O   UNL d   1     137.675 141.443  97.127  0.00  0.00    -0.390 OA
ATOM     15  H   UNL d   1     137.312 141.109  96.283  0.00  0.00     0.210 HD
ENDBRANCH   2  14
BRANCH   5  16
ATOM     16  O   UNL d   1     139.276 145.849  98.325  0.00  0.00    -0.390 OA
ATOM     17  H   UNL d   1     138.636 145.828  99.072  0.00  0.00     0.210 HD
ENDBRANCH   5  16
BRANCH   3  18
ATOM     18  O   UNL d   1     139.327 142.624  94.801  0.00  0.00    -0.390 OA
ATOM     19  H   UNL d   1     138.757 141.834  94.732  0.00  0.00     0.210 HD
ENDBRANCH   3  18
BRANCH   4  20
ATOM     20  O   UNL d   1     141.159 144.605  96.182  0.00  0.00    -0.390 OA
ATOM     21  H   UNL d   1     141.422 145.338  96.773  0.00  0.00     0.210 HD
ENDBRANCH   4  20
TORSDOF 10
ENDMDL
MODEL 8
REMARK VINA RESULT:      -5.0     11.993     12.809
REMARK  10 active torsions:
REMARK  status: ('A' for Active; 'I' for Inactive)
REMARK    1  A    between atoms: O_1  and  C_2 
REMARK    2  A    between atoms: C_2  and  C_3 
REMARK    3  A    between atoms: C_3  and  O_4 
REMARK    4  A    between atoms: C_3  and  C_14 
REMARK    5  A    between atoms: O_4  and  C_5 
REMARK    6  A    between atoms: C_6  and  O_7 
REMARK    7  A    between atoms: C_8  and  O_9 
REMARK    8  A    between atoms: C_10  and  O_11 
REMARK    9  A    between atoms: C_12  and  O_13 
REMARK   10  A    between atoms: C_14  and  O_15 
ROOT
ATOM      1  C   UNL d   1     137.892 143.551  98.964  0.00  0.00     0.184 C 
ATOM      2  C   UNL d   1     137.964 143.468 100.503  0.00  0.00     0.181 C 
ATOM      3  C   UNL d   1     137.537 142.036 100.829  0.00  0.00     0.180 C 
ATOM      4  C   UNL d   1     136.437 141.798  99.802  0.00  0.00     0.180 C 
ATOM      5  C   UNL d   1     137.092 142.310  98.523  0.00  0.00     0.181 C 
ENDROOT
BRANCH   1   6
ATOM      6  O   UNL d   1     139.198 143.455  98.389  0.00  0.00    -0.371 OA
BRANCH   6   7
ATOM      7  C   UNL d   1     139.318 144.129  97.124  0.00  0.00     0.169 C 
BRANCH   7   8
ATOM      8  C   UNL d   1     140.047 145.442  97.411  0.00  0.00     0.198 C 
BRANCH   8   9
ATOM      9  O   UNL d   1     140.289 145.558  98.816  0.00  0.00    -0.398 OA
ATOM     10  H   UNL d   1     140.041 146.478  99.066  0.00  0.00     0.209 HD
ENDBRANCH   8   9
ENDBRANCH   7   8
BRANCH   7  11
ATOM     11  C   UNL d   1     140.107 143.243  96.155  0.00  0.00     0.198 C 
BRANCH  11  12
ATOM     12  O   UNL d   1     139.255 142.746  95.114  0.00  0.00    -0.398 OA
ATOM     13  H   UNL d   1     139.833 142.233  94.517  0.00  0.00     0.209 HD
ENDBRANCH  11  12
ENDBRANCH   7  11
ENDBRANCH   6   7
ENDBRANCH   1   6
BRANCH   2  14
ATOM     14  O   UNL d   1     139.248 143.790 101.034  0.00  0.00    -0.390 OA
ATOM     15  H   UNL d   1     139.891 143.506 100.355  0.00  0.00     0.210 HD
ENDBRANCH   2  14
BRANCH   5  16
ATOM     16  O   UNL d   1     136.115 142.629  97.534  0.00  0.00    -0.390 OA
ATOM     17  H   UNL d   1     135.258 142.324  97.906  0.00  0.00     0.210 HD
ENDBRANCH   5  16
BRANCH   3  18
ATOM     18  O   UNL d   1     137.056 141.933 102.166  0.00  0.00    -0.390 OA
ATOM     19  H   UNL d   1     136.205 141.458 102.099  0.00  0.00     0.210 HD
ENDBRANCH   3  18
BRANCH   4  20
ATOM     20  O   UNL d   1     136.095 140.417  99.724  0.00  0.00    -0.390 OA
ATOM     21  H   UNL d   1     136.937 139.947  99.565  0.00  0.00     0.210 HD
ENDBRANCH   4  20
TORSDOF 10
ENDMDL
MODEL 9
REMARK VINA RESULT:      -5.0     12.259     13.683
REMARK  10 active torsions:
REMARK  status: ('A' for Active; 'I' for Inactive)
REMARK    1  A    between atoms: O_1  and  C_2 
REMARK    2  A    between atoms: C_2  and  C_3 
REMARK    3  A    between atoms: C_3  and  O_4 
REMARK    4  A    between atoms: C_3  and  C_14 
REMARK    5  A    between atoms: O_4  and  C_5 
REMARK    6  A    between atoms: C_6  and  O_7 
REMARK    7  A    between atoms: C_8  and  O_9 
REMARK    8  A    between atoms: C_10  and  O_11 
REMARK    9  A    between atoms: C_12  and  O_13 
REMARK   10  A    between atoms: C_14  and  O_15 
ROOT
ATOM      1  C   UNL d   1     137.500 142.704  99.704  0.00  0.00     0.184 C 
ATOM      2  C   UNL d   1     138.574 143.010 100.771  0.00  0.00     0.181 C 
ATOM      3  C   UNL d   1     139.492 144.036 100.105  0.00  0.00     0.180 C 
ATOM      4  C   UNL d   1     139.535 143.529  98.668  0.00  0.00     0.180 C 
ATOM      5  C   UNL d   1     138.058 143.274  98.385  0.00  0.00     0.181 C 
ENDROOT
BRANCH   1   6
ATOM      6  O   UNL d   1     136.282 143.392  99.997  0.00  0.00    -0.371 OA
BRANCH   6   7
ATOM      7  C   UNL d   1     135.114 142.562  99.887  0.00  0.00     0.169 C 
BRANCH   7   8
ATOM      8  C   UNL d   1     134.243 143.196  98.802  0.00  0.00     0.198 C 
BRANCH   8   9
ATOM      9  O   UNL d   1     132.944 142.597  98.817  0.00  0.00    -0.398 OA
ATOM     10  H   UNL d   1     132.559 142.746  97.924  0.00  0.00     0.209 HD
ENDBRANCH   8   9
ENDBRANCH   7   8
BRANCH   7  11
ATOM     11  C   UNL d   1     135.541 141.140  99.509  0.00  0.00     0.198 C 
BRANCH  11  12
ATOM     12  O   UNL d   1     135.223 140.864  98.137  0.00  0.00    -0.398 OA
ATOM     13  H   UNL d   1     136.053 140.995  97.639  0.00  0.00     0.209 HD
ENDBRANCH  11  12
ENDBRANCH   7  11
ENDBRANCH   6   7
ENDBRANCH   1   6
BRANCH   2  14
ATOM     14  O   UNL d   1     138.035 143.480 102.005  0.00  0.00    -0.390 OA
ATOM     15  H   UNL d   1     138.451 144.351 102.158  0.00  0.00     0.210 HD
ENDBRANCH   2  14
BRANCH   5  16
ATOM     16  O   UNL d   1     137.888 142.366  97.299  0.00  0.00    -0.390 OA
ATOM     17  H   UNL d   1     138.798 142.159  96.987  0.00  0.00     0.210 HD
ENDBRANCH   5  16
BRANCH   3  18
ATOM     18  O   UNL d   1     140.781 144.044 100.711  0.00  0.00    -0.390 OA
ATOM     19  H   UNL d   1     141.303 144.693 100.199  0.00  0.00     0.210 HD
ENDBRANCH   3  18
BRANCH   4  20
ATOM     20  O   UNL d   1     140.096 144.503  97.794  0.00  0.00    -0.390 OA
ATOM     21  H   UNL d   1     140.717 144.014  97.219  0.00  0.00     0.210 HD
ENDBRANCH   4  20
TORSDOF 10
ENDMDL
