../results/processed/lowest_conf/7XP5/docked/s3c.pdbqt
 OpenBabel07252416063D

 21 21  0  0  1  0  0  0  0  0999 V2000
  146.3380  132.9980  100.2560 C   0  0  2  0  0  3  0  0  0  0  0  0
  145.8270  131.7640  101.0300 C   0  0  1  0  0  3  0  0  0  0  0  0
  144.8520  132.3360  102.0600 C   0  0  2  0  0  3  0  0  0  0  0  0
  145.5500  133.6300  102.4630 C   0  0  1  0  0  3  0  0  0  0  0  0
  145.9250  134.2150  101.1060 C   0  0  1  0  0  3  0  0  0  0  0  0
  145.6870  133.1080   98.9880 O   0  0  0  0  0  0  0  0  0  0  0  0
  146.3930  133.9400   98.0520 C   0  0  0  0  0  3  0  0  0  0  0  0
  147.3580  133.0160   97.3080 C   0  0  0  0  0  2  0  0  0  0  0  0
  148.0780  133.7650   96.3250 O   0  0  0  0  0  0  0  0  0  0  0  0
  148.4680  133.1080   95.7040 H   0  0  0  0  0  0  0  0  0  0  0  0
  145.3860  134.5910   97.0980 C   0  0  0  0  0  2  0  0  0  0  0  0
  145.1210  133.7320   95.9800 O   0  0  0  0  0  0  0  0  0  0  0  0
  144.1480  133.6900   95.9000 H   0  0  0  0  0  0  0  0  0  0  0  0
  145.2230  130.7760  100.1960 O   0  0  0  0  0  0  0  0  0  0  0  0
  145.3550  129.9260  100.6590 H   0  0  0  0  0  0  0  0  0  0  0  0
  146.9830  135.1640  101.2260 O   0  0  0  0  0  0  0  0  0  0  0  0
  147.6580  134.7310  101.7950 H   0  0  0  0  0  0  0  0  0  0  0  0
  144.6860  131.4490  103.1620 O   0  0  0  0  0  0  0  0  0  0  0  0
  143.8220  131.0160  103.0180 H   0  0  0  0  0  0  0  0  0  0  0  0
  144.6750  134.4800  103.1990 O   0  0  0  0  0  0  0  0  0  0  0  0
  145.1590  134.7100  104.0160 H   0  0  0  0  0  0  0  0  0  0  0  0
  1  6  1  6  0  0  0
  1  2  1  0  0  0  0
  1  5  1  0  0  0  0
  2 14  1  6  0  0  0
  2  3  1  0  0  0  0
  3  4  1  0  0  0  0
  3 18  1  1  0  0  0
  4 20  1  6  0  0  0
  5 16  1  1  0  0  0
  5  4  1  0  0  0  0
  7  6  1  0  0  0  0
  8  7  1  0  0  0  0
  9  8  1  0  0  0  0
 10  9  1  0  0  0  0
 11  7  1  0  0  0  0
 12 11  1  0  0  0  0
 13 12  1  0  0  0  0
 14 15  1  0  0  0  0
 16 17  1  0  0  0  0
 19 18  1  0  0  0  0
 20 21  1  0  0  0  0
M  END
>  <MODEL>
1

>  <REMARK>
 VINA RESULT:      -5.9      0.000      0.000
  10 active torsions:
  status: ('A' for Active; 'I' for Inactive)
    1  A    between atoms: O_1  and  C_2 
    2  A    between atoms: C_2  and  C_3 
    3  A    between atoms: C_3  and  O_4 
    4  A    between atoms: C_3  and  C_14 
    5  A    between atoms: O_4  and  C_5 
    6  A    between atoms: C_6  and  O_7 
    7  A    between atoms: C_8  and  O_9 
    8  A    between atoms: C_10  and  O_11 
    9  A    between atoms: C_12  and  O_13 
   10  A    between atoms: C_14  and  O_15 

>  <TORSDO>
F 10

$$$$
../results/processed/lowest_conf/7XP5/docked/s3c.pdbqt
 OpenBabel07252416063D

 21 21  0  0  1  0  0  0  0  0999 V2000
  144.7670  132.6090  100.3900 C   0  0  2  0  0  3  0  0  0  0  0  0
  143.8340  133.8010  100.6900 C   0  0  1  0  0  3  0  0  0  0  0  0
  144.4110  134.4270  101.9600 C   0  0  2  0  0  3  0  0  0  0  0  0
  144.8480  133.1950  102.7440 C   0  0  1  0  0  3  0  0  0  0  0  0
  145.5880  132.3950  101.6770 C   0  0  1  0  0  3  0  0  0  0  0  0
  145.6810  132.9300   99.3380 O   0  0  0  0  0  0  0  0  0  0  0  0
  147.0370  133.0910   99.7860 C   0  0  0  0  0  3  0  0  0  0  0  0
  147.8550  132.0270   99.0520 C   0  0  0  0  0  2  0  0  0  0  0  0
  147.9410  130.8490   99.8580 O   0  0  0  0  0  0  0  0  0  0  0  0
  147.3040  130.2030   99.4760 H   0  0  0  0  0  0  0  0  0  0  0  0
  147.5150  134.5060   99.4450 C   0  0  0  0  0  2  0  0  0  0  0  0
  146.5470  135.1840   98.6310 O   0  0  0  0  0  0  0  0  0  0  0  0
  146.5950  136.1250   98.8860 H   0  0  0  0  0  0  0  0  0  0  0  0
  143.7370  134.7350   99.6160 O   0  0  0  0  0  0  0  0  0  0  0  0
  142.8190  134.6630   99.2890 H   0  0  0  0  0  0  0  0  0  0  0  0
  145.6740  131.0170  102.0310 O   0  0  0  0  0  0  0  0  0  0  0  0
  146.1430  130.5840  101.2830 H   0  0  0  0  0  0  0  0  0  0  0  0
  143.4260  135.1860  102.6550 O   0  0  0  0  0  0  0  0  0  0  0  0
  143.7830  135.3110  103.5560 H   0  0  0  0  0  0  0  0  0  0  0  0
  145.6880  133.5510  103.8380 O   0  0  0  0  0  0  0  0  0  0  0  0
  146.5950  133.5790  103.4750 H   0  0  0  0  0  0  0  0  0  0  0  0
  1  6  1  6  0  0  0
  1  2  1  0  0  0  0
  1  5  1  0  0  0  0
  2 14  1  6  0  0  0
  2  3  1  0  0  0  0
  3 18  1  1  0  0  0
  3  4  1  0  0  0  0
  4 20  1  1  0  0  0
  5 16  1  1  0  0  0
  5  4  1  0  0  0  0
  6  7  1  0  0  0  0
  8  7  1  0  0  0  0
  8  9  1  0  0  0  0
 10  9  1  0  0  0  0
 11  7  1  0  0  0  0
 12 13  1  0  0  0  0
 12 11  1  0  0  0  0
 15 14  1  0  0  0  0
 17 16  1  0  0  0  0
 18 19  1  0  0  0  0
 21 20  1  0  0  0  0
M  END
>  <MODEL>
2

>  <REMARK>
 VINA RESULT:      -5.7      2.004      2.906
  10 active torsions:
  status: ('A' for Active; 'I' for Inactive)
    1  A    between atoms: O_1  and  C_2 
    2  A    between atoms: C_2  and  C_3 
    3  A    between atoms: C_3  and  O_4 
    4  A    between atoms: C_3  and  C_14 
    5  A    between atoms: O_4  and  C_5 
    6  A    between atoms: C_6  and  O_7 
    7  A    between atoms: C_8  and  O_9 
    8  A    between atoms: C_10  and  O_11 
    9  A    between atoms: C_12  and  O_13 
   10  A    between atoms: C_14  and  O_15 

>  <TORSDO>
F 10

$$$$
../results/processed/lowest_conf/7XP5/docked/s3c.pdbqt
 OpenBabel07252416063D

 21 21  0  0  1  0  0  0  0  0999 V2000
  146.0450  134.2970   97.8390 C   0  0  2  0  0  3  0  0  0  0  0  0
  145.1520  135.2660   97.0340 C   0  0  1  0  0  3  0  0  0  0  0  0
  144.9160  134.5510   95.7030 C   0  0  2  0  0  3  0  0  0  0  0  0
  146.2720  133.8990   95.4550 C   0  0  1  0  0  3  0  0  0  0  0  0
  146.5670  133.2720   96.8140 C   0  0  1  0  0  3  0  0  0  0  0  0
  145.2750  133.5880   98.8130 O   0  0  0  0  0  0  0  0  0  0  0  0
  146.0760  132.9480   99.8210 C   0  0  0  0  0  3  0  0  0  0  0  0
  146.7000  134.0760  100.6450 C   0  0  0  0  0  2  0  0  0  0  0  0
  145.6670  134.8220  101.2960 O   0  0  0  0  0  0  0  0  0  0  0  0
  145.1270  135.2300  100.5820 H   0  0  0  0  0  0  0  0  0  0  0  0
  145.1810  132.0500  100.6800 C   0  0  0  0  0  2  0  0  0  0  0  0
  145.2350  130.6920  100.2200 O   0  0  0  0  0  0  0  0  0  0  0  0
  144.3120  130.4360  100.0320 H   0  0  0  0  0  0  0  0  0  0  0  0
  143.9340  135.6050   97.6950 O   0  0  0  0  0  0  0  0  0  0  0  0
  143.5650  134.7580   98.0140 H   0  0  0  0  0  0  0  0  0  0  0  0
  147.9610  133.0190   96.9750 O   0  0  0  0  0  0  0  0  0  0  0  0
  148.3220  132.9560   96.0630 H   0  0  0  0  0  0  0  0  0  0  0  0
  144.5680  135.4740   94.6760 O   0  0  0  0  0  0  0  0  0  0  0  0
  143.6640  135.7740   94.8930 H   0  0  0  0  0  0  0  0  0  0  0  0
  146.1960  132.9310   94.4130 O   0  0  0  0  0  0  0  0  0  0  0  0
  146.2570  132.0620   94.8570 H   0  0  0  0  0  0  0  0  0  0  0  0
  1  6  1  1  0  0  0
  2 14  1  1  0  0  0
  2  1  1  0  0  0  0
  3 18  1  6  0  0  0
  3  2  1  0  0  0  0
  4 20  1  6  0  0  0
  4  3  1  0  0  0  0
  4  5  1  0  0  0  0
  5 16  1  1  0  0  0
  5  1  1  0  0  0  0
  6  7  1  0  0  0  0
  7  8  1  0  0  0  0
  7 11  1  0  0  0  0
  8  9  1  0  0  0  0
 10  9  1  0  0  0  0
 12 11  1  0  0  0  0
 13 12  1  0  0  0  0
 14 15  1  0  0  0  0
 17 16  1  0  0  0  0
 18 19  1  0  0  0  0
 20 21  1  0  0  0  0
M  END
>  <MODEL>
3

>  <REMARK>
 VINA RESULT:      -5.6      1.464      5.607
  10 active torsions:
  status: ('A' for Active; 'I' for Inactive)
    1  A    between atoms: O_1  and  C_2 
    2  A    between atoms: C_2  and  C_3 
    3  A    between atoms: C_3  and  O_4 
    4  A    between atoms: C_3  and  C_14 
    5  A    between atoms: O_4  and  C_5 
    6  A    between atoms: C_6  and  O_7 
    7  A    between atoms: C_8  and  O_9 
    8  A    between atoms: C_10  and  O_11 
    9  A    between atoms: C_12  and  O_13 
   10  A    between atoms: C_14  and  O_15 

>  <TORSDO>
F 10

$$$$
../results/processed/lowest_conf/7XP5/docked/s3c.pdbqt
 OpenBabel07252416063D

 21 21  0  0  1  0  0  0  0  0999 V2000
  136.8770  142.7820   98.6410 C   0  0  2  0  0  3  0  0  0  0  0  0
  135.8260  143.4790   97.7510 C   0  0  1  0  0  3  0  0  0  0  0  0
  134.5310  143.4070   98.5610 C   0  0  2  0  0  3  0  0  0  0  0  0
  134.6380  142.0260   99.1980 C   0  0  1  0  0  3  0  0  0  0  0  0
  136.0700  142.0370   99.7220 C   0  0  1  0  0  3  0  0  0  0  0  0
  137.7050  143.7440   99.2980 O   0  0  0  0  0  0  0  0  0  0  0  0
  139.1070  143.5700   99.0340 C   0  0  0  0  0  3  0  0  0  0  0  0
  139.5070  144.7110   98.0970 C   0  0  0  0  0  2  0  0  0  0  0  0
  138.7680  145.8890   98.4350 O   0  0  0  0  0  0  0  0  0  0  0  0
  137.8460  145.5960   98.6160 H   0  0  0  0  0  0  0  0  0  0  0  0
  139.8790  143.6270  100.3550 C   0  0  0  0  0  2  0  0  0  0  0  0
  140.7030  144.8010  100.4100 O   0  0  0  0  0  0  0  0  0  0  0  0
  141.5410  144.5600   99.9700 H   0  0  0  0  0  0  0  0  0  0  0  0
  136.1740  144.8160   97.3950 O   0  0  0  0  0  0  0  0  0  0  0  0
  137.1360  144.8000   97.2240 H   0  0  0  0  0  0  0  0  0  0  0  0
  136.5550  140.7120   99.9310 O   0  0  0  0  0  0  0  0  0  0  0  0
  136.6480  140.6190  100.9050 H   0  0  0  0  0  0  0  0  0  0  0  0
  133.3880  143.5240   97.7190 O   0  0  0  0  0  0  0  0  0  0  0  0
  132.6920  143.9180   98.2810 H   0  0  0  0  0  0  0  0  0  0  0  0
  133.6790  141.8610  100.2370 O   0  0  0  0  0  0  0  0  0  0  0  0
  134.1750  141.5030  100.9990 H   0  0  0  0  0  0  0  0  0  0  0  0
  1  6  1  1  0  0  0
  1  5  1  0  0  0  0
  2 14  1  1  0  0  0
  2  3  1  0  0  0  0
  2  1  1  0  0  0  0
  3 18  1  6  0  0  0
  3  4  1  0  0  0  0
  4  5  1  0  0  0  0
  4 20  1  1  0  0  0
  5 16  1  6  0  0  0
  7  6  1  0  0  0  0
  7 11  1  0  0  0  0
  8  9  1  0  0  0  0
  8  7  1  0  0  0  0
  9 10  1  0  0  0  0
 11 12  1  0  0  0  0
 13 12  1  0  0  0  0
 15 14  1  0  0  0  0
 16 17  1  0  0  0  0
 18 19  1  0  0  0  0
 20 21  1  0  0  0  0
M  END
>  <MODEL>
4

>  <REMARK>
 VINA RESULT:      -5.3     12.722     14.138
  10 active torsions:
  status: ('A' for Active; 'I' for Inactive)
    1  A    between atoms: O_1  and  C_2 
    2  A    between atoms: C_2  and  C_3 
    3  A    between atoms: C_3  and  O_4 
    4  A    between atoms: C_3  and  C_14 
    5  A    between atoms: O_4  and  C_5 
    6  A    between atoms: C_6  and  O_7 
    7  A    between atoms: C_8  and  O_9 
    8  A    between atoms: C_10  and  O_11 
    9  A    between atoms: C_12  and  O_13 
   10  A    between atoms: C_14  and  O_15 

>  <TORSDO>
F 10

$$$$
../results/processed/lowest_conf/7XP5/docked/s3c.pdbqt
 OpenBabel07252416063D

 21 21  0  0  1  0  0  0  0  0999 V2000
  138.8880  143.4730   98.5500 C   0  0  2  0  0  3  0  0  0  0  0  0
  139.7430  144.6940   98.1500 C   0  0  1  0  0  3  0  0  0  0  0  0
  139.9120  144.5620   96.6360 C   0  0  2  0  0  3  0  0  0  0  0  0
  140.0680  143.0550   96.4700 C   0  0  1  0  0  3  0  0  0  0  0  0
  138.9250  142.5290   97.3320 C   0  0  1  0  0  3  0  0  0  0  0  0
  137.5270  143.8550   98.7660 O   0  0  0  0  0  0  0  0  0  0  0  0
  136.9700  143.3270   99.9820 C   0  0  0  0  0  3  0  0  0  0  0  0
  136.1450  142.1050   99.5750 C   0  0  0  0  0  2  0  0  0  0  0  0
  136.8890  140.9130   99.8440 O   0  0  0  0  0  0  0  0  0  0  0  0
  136.5300  140.5450  100.6840 H   0  0  0  0  0  0  0  0  0  0  0  0
  138.1080  142.9490  100.9340 C   0  0  0  0  0  2  0  0  0  0  0  0
  137.9750  143.6410  102.1840 O   0  0  0  0  0  0  0  0  0  0  0  0
  137.0260  143.6020  102.4110 H   0  0  0  0  0  0  0  0  0  0  0  0
  139.1680  145.9440   98.5280 O   0  0  0  0  0  0  0  0  0  0  0  0
  138.7630  146.3030   97.7150 H   0  0  0  0  0  0  0  0  0  0  0  0
  139.1470  141.1740   97.7160 O   0  0  0  0  0  0  0  0  0  0  0  0
  138.2710  140.7340   97.6370 H   0  0  0  0  0  0  0  0  0  0  0  0
  141.0590  145.2740   96.1810 O   0  0  0  0  0  0  0  0  0  0  0  0
  140.7750  146.2060   96.1110 H   0  0  0  0  0  0  0  0  0  0  0  0
  139.9410  142.6700   95.1050 O   0  0  0  0  0  0  0  0  0  0  0  0
  140.7890  142.2420   94.8730 H   0  0  0  0  0  0  0  0  0  0  0  0
  1  6  1  6  0  0  0
  2 14  1  6  0  0  0
  2  1  1  0  0  0  0
  3 18  1  1  0  0  0
  3  2  1  0  0  0  0
  4 20  1  6  0  0  0
  4  3  1  0  0  0  0
  4  5  1  0  0  0  0
  5 16  1  1  0  0  0
  5  1  1  0  0  0  0
  6  7  1  0  0  0  0
  7 11  1  0  0  0  0
  8  9  1  0  0  0  0
  8  7  1  0  0  0  0
  9 10  1  0  0  0  0
 11 12  1  0  0  0  0
 12 13  1  0  0  0  0
 15 14  1  0  0  0  0
 17 16  1  0  0  0  0
 19 18  1  0  0  0  0
 21 20  1  0  0  0  0
M  END
>  <MODEL>
5

>  <REMARK>
 VINA RESULT:      -5.2     11.576     13.537
  10 active torsions:
  status: ('A' for Active; 'I' for Inactive)
    1  A    between atoms: O_1  and  C_2 
    2  A    between atoms: C_2  and  C_3 
    3  A    between atoms: C_3  and  O_4 
    4  A    between atoms: C_3  and  C_14 
    5  A    between atoms: O_4  and  C_5 
    6  A    between atoms: C_6  and  O_7 
    7  A    between atoms: C_8  and  O_9 
    8  A    between atoms: C_10  and  O_11 
    9  A    between atoms: C_12  and  O_13 
   10  A    between atoms: C_14  and  O_15 

>  <TORSDO>
F 10

$$$$
../results/processed/lowest_conf/7XP5/docked/s3c.pdbqt
 OpenBabel07252416063D

 21 21  0  0  1  0  0  0  0  0999 V2000
  138.6790  141.9620   97.6780 C   0  0  2  0  0  3  0  0  0  0  0  0
  138.0870  142.2940   96.2920 C   0  0  1  0  0  3  0  0  0  0  0  0
  136.8020  143.0640   96.6000 C   0  0  2  0  0  3  0  0  0  0  0  0
  136.2830  142.3260   97.8280 C   0  0  1  0  0  3  0  0  0  0  0  0
  137.5420  142.2270   98.6840 C   0  0  1  0  0  3  0  0  0  0  0  0
  139.7580  142.8450   97.9950 O   0  0  0  0  0  0  0  0  0  0  0  0
  139.3740  143.9340   98.8520 C   0  0  0  0  0  3  0  0  0  0  0  0
  140.2380  143.8090  100.1080 C   0  0  0  0  0  2  0  0  0  0  0  0
  140.8360  145.0740  100.4060 O   0  0  0  0  0  0  0  0  0  0  0  0
  140.8270  145.5900   99.5670 H   0  0  0  0  0  0  0  0  0  0  0  0
  139.6220  145.2580   98.1240 C   0  0  0  0  0  2  0  0  0  0  0  0
  140.3820  145.0430   96.9260 O   0  0  0  0  0  0  0  0  0  0  0  0
  140.5280  144.0790   96.8720 H   0  0  0  0  0  0  0  0  0  0  0  0
  138.9760  143.0280   95.4510 O   0  0  0  0  0  0  0  0  0  0  0  0
  139.8740  142.8210   95.7760 H   0  0  0  0  0  0  0  0  0  0  0  0
  137.4300  141.1830   99.6490 O   0  0  0  0  0  0  0  0  0  0  0  0
  137.1600  140.3860   99.1410 H   0  0  0  0  0  0  0  0  0  0  0  0
  135.8890  143.0010   95.5090 O   0  0  0  0  0  0  0  0  0  0  0  0
  135.1990  143.6630   95.7090 H   0  0  0  0  0  0  0  0  0  0  0  0
  135.2450  143.0590   98.4700 O   0  0  0  0  0  0  0  0  0  0  0  0
  135.4190  142.9770   99.4280 H   0  0  0  0  0  0  0  0  0  0  0  0
  1  6  1  1  0  0  0
  1  5  1  0  0  0  0
  2 14  1  6  0  0  0
  2  3  1  0  0  0  0
  2  1  1  0  0  0  0
  3 18  1  6  0  0  0
  3  4  1  0  0  0  0
  4 20  1  1  0  0  0
  4  5  1  0  0  0  0
  5 16  1  1  0  0  0
  6  7  1  0  0  0  0
  7  8  1  0  0  0  0
  8  9  1  0  0  0  0
 10  9  1  0  0  0  0
 11  7  1  0  0  0  0
 12 11  1  0  0  0  0
 13 12  1  0  0  0  0
 14 15  1  0  0  0  0
 17 16  1  0  0  0  0
 18 19  1  0  0  0  0
 20 21  1  0  0  0  0
M  END
>  <MODEL>
6

>  <REMARK>
 VINA RESULT:      -5.1     11.732     13.216
  10 active torsions:
  status: ('A' for Active; 'I' for Inactive)
    1  A    between atoms: O_1  and  C_2 
    2  A    between atoms: C_2  and  C_3 
    3  A    between atoms: C_3  and  O_4 
    4  A    between atoms: C_3  and  C_14 
    5  A    between atoms: O_4  and  C_5 
    6  A    between atoms: C_6  and  O_7 
    7  A    between atoms: C_8  and  O_9 
    8  A    between atoms: C_10  and  O_11 
    9  A    between atoms: C_12  and  O_13 
   10  A    between atoms: C_14  and  O_15 

>  <TORSDO>
F 10

$$$$
../results/processed/lowest_conf/7XP5/docked/s3c.pdbqt
 OpenBabel07252416063D

 21 21  0  0  1  0  0  0  0  0999 V2000
  138.1850  143.6510   98.1490 C   0  0  2  0  0  3  0  0  0  0  0  0
  138.0520  142.7950   96.8720 C   0  0  1  0  0  3  0  0  0  0  0  0
  139.4180  142.9040   96.1950 C   0  0  2  0  0  3  0  0  0  0  0  0
  139.7860  144.3580   96.4660 C   0  0  1  0  0  3  0  0  0  0  0  0
  139.4660  144.4860   97.9520 C   0  0  1  0  0  3  0  0  0  0  0  0
  138.3760  142.8230   99.2990 O   0  0  0  0  0  0  0  0  0  0  0  0
  137.4870  143.1360  100.3850 C   0  0  0  0  0  3  0  0  0  0  0  0
  136.3440  142.1240  100.3010 C   0  0  0  0  0  2  0  0  0  0  0  0
  136.8700  140.8300   99.9900 O   0  0  0  0  0  0  0  0  0  0  0  0
  137.7650  140.7890  100.3970 H   0  0  0  0  0  0  0  0  0  0  0  0
  138.2490  143.0180  101.7080 C   0  0  0  0  0  2  0  0  0  0  0  0
  139.6660  143.0150  101.4780 O   0  0  0  0  0  0  0  0  0  0  0  0
  139.8290  143.7020  100.8040 H   0  0  0  0  0  0  0  0  0  0  0  0
  137.6750  141.4430   97.1270 O   0  0  0  0  0  0  0  0  0  0  0  0
  137.3120  141.1090   96.2830 H   0  0  0  0  0  0  0  0  0  0  0  0
  139.2760  145.8490   98.3250 O   0  0  0  0  0  0  0  0  0  0  0  0
  138.6360  145.8280   99.0720 H   0  0  0  0  0  0  0  0  0  0  0  0
  139.3270  142.6240   94.8010 O   0  0  0  0  0  0  0  0  0  0  0  0
  138.7570  141.8340   94.7320 H   0  0  0  0  0  0  0  0  0  0  0  0
  141.1590  144.6050   96.1820 O   0  0  0  0  0  0  0  0  0  0  0  0
  141.4220  145.3380   96.7730 H   0  0  0  0  0  0  0  0  0  0  0  0
  1  6  1  1  0  0  0
  2 14  1  1  0  0  0
  2  1  1  0  0  0  0
  3 18  1  6  0  0  0
  3  4  1  0  0  0  0
  3  2  1  0  0  0  0
  4 20  1  1  0  0  0
  4  5  1  0  0  0  0
  5  1  1  0  0  0  0
  5 16  1  6  0  0  0
  6  7  1  0  0  0  0
  7 11  1  0  0  0  0
  8  7  1  0  0  0  0
  9  8  1  0  0  0  0
  9 10  1  0  0  0  0
 12 11  1  0  0  0  0
 13 12  1  0  0  0  0
 15 14  1  0  0  0  0
 16 17  1  0  0  0  0
 19 18  1  0  0  0  0
 20 21  1  0  0  0  0
M  END
>  <MODEL>
7

>  <REMARK>
 VINA RESULT:      -5.0     11.940     13.315
  10 active torsions:
  status: ('A' for Active; 'I' for Inactive)
    1  A    between atoms: O_1  and  C_2 
    2  A    between atoms: C_2  and  C_3 
    3  A    between atoms: C_3  and  O_4 
    4  A    between atoms: C_3  and  C_14 
    5  A    between atoms: O_4  and  C_5 
    6  A    between atoms: C_6  and  O_7 
    7  A    between atoms: C_8  and  O_9 
    8  A    between atoms: C_10  and  O_11 
    9  A    between atoms: C_12  and  O_13 
   10  A    between atoms: C_14  and  O_15 

>  <TORSDO>
F 10

$$$$
../results/processed/lowest_conf/7XP5/docked/s3c.pdbqt
 OpenBabel07252416063D

 21 21  0  0  1  0  0  0  0  0999 V2000
  137.8920  143.5510   98.9640 C   0  0  2  0  0  3  0  0  0  0  0  0
  137.9640  143.4680  100.5030 C   0  0  1  0  0  3  0  0  0  0  0  0
  137.5370  142.0360  100.8290 C   0  0  2  0  0  3  0  0  0  0  0  0
  136.4370  141.7980   99.8020 C   0  0  1  0  0  3  0  0  0  0  0  0
  137.0920  142.3100   98.5230 C   0  0  1  0  0  3  0  0  0  0  0  0
  139.1980  143.4550   98.3890 O   0  0  0  0  0  0  0  0  0  0  0  0
  139.3180  144.1290   97.1240 C   0  0  0  0  0  3  0  0  0  0  0  0
  140.0470  145.4420   97.4110 C   0  0  0  0  0  2  0  0  0  0  0  0
  140.2890  145.5580   98.8160 O   0  0  0  0  0  0  0  0  0  0  0  0
  140.0410  146.4780   99.0660 H   0  0  0  0  0  0  0  0  0  0  0  0
  140.1070  143.2430   96.1550 C   0  0  0  0  0  2  0  0  0  0  0  0
  139.2550  142.7460   95.1140 O   0  0  0  0  0  0  0  0  0  0  0  0
  139.8330  142.2330   94.5170 H   0  0  0  0  0  0  0  0  0  0  0  0
  139.2480  143.7900  101.0340 O   0  0  0  0  0  0  0  0  0  0  0  0
  139.8910  143.5060  100.3550 H   0  0  0  0  0  0  0  0  0  0  0  0
  136.1150  142.6290   97.5340 O   0  0  0  0  0  0  0  0  0  0  0  0
  135.2580  142.3240   97.9060 H   0  0  0  0  0  0  0  0  0  0  0  0
  137.0560  141.9330  102.1660 O   0  0  0  0  0  0  0  0  0  0  0  0
  136.2050  141.4580  102.0990 H   0  0  0  0  0  0  0  0  0  0  0  0
  136.0950  140.4170   99.7240 O   0  0  0  0  0  0  0  0  0  0  0  0
  136.9370  139.9470   99.5650 H   0  0  0  0  0  0  0  0  0  0  0  0
  1  6  1  6  0  0  0
  1  2  1  0  0  0  0
  2  3  1  0  0  0  0
  2 14  1  6  0  0  0
  3 18  1  1  0  0  0
  4 20  1  6  0  0  0
  4  3  1  0  0  0  0
  5 16  1  6  0  0  0
  5  1  1  0  0  0  0
  5  4  1  0  0  0  0
  7  8  1  0  0  0  0
  7  6  1  0  0  0  0
  8  9  1  0  0  0  0
  9 10  1  0  0  0  0
 11  7  1  0  0  0  0
 12 11  1  0  0  0  0
 13 12  1  0  0  0  0
 15 14  1  0  0  0  0
 16 17  1  0  0  0  0
 19 18  1  0  0  0  0
 21 20  1  0  0  0  0
M  END
>  <MODEL>
8

>  <REMARK>
 VINA RESULT:      -5.0     11.993     12.809
  10 active torsions:
  status: ('A' for Active; 'I' for Inactive)
    1  A    between atoms: O_1  and  C_2 
    2  A    between atoms: C_2  and  C_3 
    3  A    between atoms: C_3  and  O_4 
    4  A    between atoms: C_3  and  C_14 
    5  A    between atoms: O_4  and  C_5 
    6  A    between atoms: C_6  and  O_7 
    7  A    between atoms: C_8  and  O_9 
    8  A    between atoms: C_10  and  O_11 
    9  A    between atoms: C_12  and  O_13 
   10  A    between atoms: C_14  and  O_15 

>  <TORSDO>
F 10

$$$$
../results/processed/lowest_conf/7XP5/docked/s3c.pdbqt
 OpenBabel07252416063D

 21 21  0  0  1  0  0  0  0  0999 V2000
  137.5000  142.7040   99.7040 C   0  0  2  0  0  3  0  0  0  0  0  0
  138.5740  143.0100  100.7710 C   0  0  1  0  0  3  0  0  0  0  0  0
  139.4920  144.0360  100.1050 C   0  0  2  0  0  3  0  0  0  0  0  0
  139.5350  143.5290   98.6680 C   0  0  1  0  0  3  0  0  0  0  0  0
  138.0580  143.2740   98.3850 C   0  0  1  0  0  3  0  0  0  0  0  0
  136.2820  143.3920   99.9970 O   0  0  0  0  0  0  0  0  0  0  0  0
  135.1140  142.5620   99.8870 C   0  0  0  0  0  3  0  0  0  0  0  0
  134.2430  143.1960   98.8020 C   0  0  0  0  0  2  0  0  0  0  0  0
  132.9440  142.5970   98.8170 O   0  0  0  0  0  0  0  0  0  0  0  0
  132.5590  142.7460   97.9240 H   0  0  0  0  0  0  0  0  0  0  0  0
  135.5410  141.1400   99.5090 C   0  0  0  0  0  2  0  0  0  0  0  0
  135.2230  140.8640   98.1370 O   0  0  0  0  0  0  0  0  0  0  0  0
  136.0530  140.9950   97.6390 H   0  0  0  0  0  0  0  0  0  0  0  0
  138.0350  143.4800  102.0050 O   0  0  0  0  0  0  0  0  0  0  0  0
  138.4510  144.3510  102.1580 H   0  0  0  0  0  0  0  0  0  0  0  0
  137.8880  142.3660   97.2990 O   0  0  0  0  0  0  0  0  0  0  0  0
  138.7980  142.1590   96.9870 H   0  0  0  0  0  0  0  0  0  0  0  0
  140.7810  144.0440  100.7110 O   0  0  0  0  0  0  0  0  0  0  0  0
  141.3030  144.6930  100.1990 H   0  0  0  0  0  0  0  0  0  0  0  0
  140.0960  144.5030   97.7940 O   0  0  0  0  0  0  0  0  0  0  0  0
  140.7170  144.0140   97.2190 H   0  0  0  0  0  0  0  0  0  0  0  0
  1  6  1  1  0  0  0
  1  2  1  0  0  0  0
  2 14  1  1  0  0  0
  3 18  1  1  0  0  0
  3  2  1  0  0  0  0
  4 20  1  6  0  0  0
  4  3  1  0  0  0  0
  5 16  1  6  0  0  0
  5  4  1  0  0  0  0
  5  1  1  0  0  0  0
  7  6  1  0  0  0  0
  8  9  1  0  0  0  0
  8  7  1  0  0  0  0
 10  9  1  0  0  0  0
 11  7  1  0  0  0  0
 12 11  1  0  0  0  0
 13 12  1  0  0  0  0
 14 15  1  0  0  0  0
 17 16  1  0  0  0  0
 19 18  1  0  0  0  0
 21 20  1  0  0  0  0
M  END
>  <MODEL>
9

>  <REMARK>
 VINA RESULT:      -5.0     12.259     13.683
  10 active torsions:
  status: ('A' for Active; 'I' for Inactive)
    1  A    between atoms: O_1  and  C_2 
    2  A    between atoms: C_2  and  C_3 
    3  A    between atoms: C_3  and  O_4 
    4  A    between atoms: C_3  and  C_14 
    5  A    between atoms: O_4  and  C_5 
    6  A    between atoms: C_6  and  O_7 
    7  A    between atoms: C_8  and  O_9 
    8  A    between atoms: C_10  and  O_11 
    9  A    between atoms: C_12  and  O_13 
   10  A    between atoms: C_14  and  O_15 

>  <TORSDO>
F 10

$$$$
