../results/processed/lowest_conf/7XP5/docked/s4.pdbqt
 OpenBabel07252416053D

 14 14  0  0  1  0  0  0  0  0999 V2000
  144.3260  132.3930  102.5960 C   0  0  0  0  0  2  0  0  0  0  0  0
  144.9710  133.7840  102.5130 C   0  0  2  0  0  3  0  0  0  0  0  0
  146.2380  133.7730  101.6420 C   0  0  1  0  0  3  0  0  0  0  0  0
  146.0880  132.7670  100.5100 C   0  0  1  0  0  3  0  0  0  0  0  0
  145.8840  131.3570  101.1080 C   0  0  1  0  0  3  0  0  0  0  0  0
  145.2830  131.3480  102.3980 O   0  0  0  0  0  0  0  0  0  0  0  0
  145.3280  134.2500  103.8230 O   0  0  0  0  0  0  0  0  0  0  0  0
  146.3040  134.2680  103.8440 H   0  0  0  0  0  0  0  0  0  0  0  0
  146.4510  135.0920  101.1180 O   0  0  0  0  0  0  0  0  0  0  0  0
  145.7260  135.6390  101.4860 H   0  0  0  0  0  0  0  0  0  0  0  0
  144.9510  133.1630   99.7090 O   0  0  0  0  0  0  0  0  0  0  0  0
  144.3660  133.6390  100.3390 H   0  0  0  0  0  0  0  0  0  0  0  0
  145.0820  130.5950  100.2110 O   0  0  0  0  0  0  0  0  0  0  0  0
  144.3730  130.2340  100.7730 H   0  0  0  0  0  0  0  0  0  0  0  0
  2  1  1  0  0  0  0
  2  7  1  1  0  0  0
  3  9  1  6  0  0  0
  3  2  1  0  0  0  0
  4 11  1  1  0  0  0
  4  5  1  0  0  0  0
  4  3  1  0  0  0  0
  5 13  1  6  0  0  0
  5  6  1  0  0  0  0
  6  1  1  0  0  0  0
  7  8  1  0  0  0  0
  9 10  1  0  0  0  0
 11 12  1  0  0  0  0
 13 14  1  0  0  0  0
M  END
>  <MODEL>
1

>  <REMARK>
 VINA RESULT:      -6.0      0.000      0.000
  4 active torsions:
  status: ('A' for Active; 'I' for Inactive)
    1  A    between atoms: C_2  and  O_10 
    2  A    between atoms: C_3  and  O_9 
    3  A    between atoms: C_4  and  O_8 
    4  A    between atoms: C_5  and  O_7 

>  <TORSDO>
F 4

$$$$
../results/processed/lowest_conf/7XP5/docked/s4.pdbqt
 OpenBabel07252416053D

 14 14  0  0  1  0  0  0  0  0999 V2000
  145.0240  132.0700  102.4600 C   0  0  0  0  0  2  0  0  0  0  0  0
  145.3740  132.0530  100.9650 C   0  0  2  0  0  3  0  0  0  0  0  0
  144.6440  133.1670  100.1960 C   0  0  1  0  0  3  0  0  0  0  0  0
  144.4790  134.3940  101.0810 C   0  0  1  0  0  3  0  0  0  0  0  0
  143.6410  134.0150  102.3220 C   0  0  1  0  0  3  0  0  0  0  0  0
  143.7360  132.6460  102.7000 O   0  0  0  0  0  0  0  0  0  0  0  0
  145.0150  130.7910  100.3810 O   0  0  0  0  0  0  0  0  0  0  0  0
  144.9010  130.1730  101.1280 H   0  0  0  0  0  0  0  0  0  0  0  0
  145.4030  133.4910   99.0220 O   0  0  0  0  0  0  0  0  0  0  0  0
  146.3300  133.2610   99.2380 H   0  0  0  0  0  0  0  0  0  0  0  0
  145.7980  134.8490  101.4620 O   0  0  0  0  0  0  0  0  0  0  0  0
  145.6750  135.2190  102.3650 H   0  0  0  0  0  0  0  0  0  0  0  0
  144.0500  134.8320  103.4140 O   0  0  0  0  0  0  0  0  0  0  0  0
  144.1030  134.2170  104.1670 H   0  0  0  0  0  0  0  0  0  0  0  0
  1  6  1  0  0  0  0
  2  7  1  6  0  0  0
  2  1  1  0  0  0  0
  3  9  1  6  0  0  0
  3  2  1  0  0  0  0
  3  4  1  0  0  0  0
  4 11  1  1  0  0  0
  4  5  1  0  0  0  0
  5  6  1  0  0  0  0
  5 13  1  1  0  0  0
  7  8  1  0  0  0  0
  9 10  1  0  0  0  0
 11 12  1  0  0  0  0
 13 14  1  0  0  0  0
M  END
>  <MODEL>
2

>  <REMARK>
 VINA RESULT:      -5.4      1.266      3.199
  4 active torsions:
  status: ('A' for Active; 'I' for Inactive)
    1  A    between atoms: C_2  and  O_10 
    2  A    between atoms: C_3  and  O_9 
    3  A    between atoms: C_4  and  O_8 
    4  A    between atoms: C_5  and  O_7 

>  <TORSDO>
F 4

$$$$
../results/processed/lowest_conf/7XP5/docked/s4.pdbqt
 OpenBabel07252416053D

 14 14  0  0  1  0  0  0  0  0999 V2000
  146.2540  133.6740  101.5330 C   0  0  0  0  0  2  0  0  0  0  0  0
  145.2370  133.7320  100.3840 C   0  0  2  0  0  3  0  0  0  0  0  0
  143.7900  133.7170  100.9030 C   0  0  1  0  0  3  0  0  0  0  0  0
  143.7030  134.4440  102.2370 C   0  0  1  0  0  3  0  0  0  0  0  0
  144.6070  133.7280  103.2650 C   0  0  1  0  0  3  0  0  0  0  0  0
  145.7120  133.0370  102.6940 O   0  0  0  0  0  0  0  0  0  0  0  0
  145.4130  132.6130   99.5020 O   0  0  0  0  0  0  0  0  0  0  0  0
  146.2670  132.7590   99.0510 H   0  0  0  0  0  0  0  0  0  0  0  0
  142.9430  134.3470   99.9300 O   0  0  0  0  0  0  0  0  0  0  0  0
  142.5330  133.6130   99.4270 H   0  0  0  0  0  0  0  0  0  0  0  0
  144.1310  135.8100  102.0280 O   0  0  0  0  0  0  0  0  0  0  0  0
  143.5060  136.3440  102.5670 H   0  0  0  0  0  0  0  0  0  0  0  0
  145.0870  134.6920  104.1960 O   0  0  0  0  0  0  0  0  0  0  0  0
  144.3120  135.2520  104.3820 H   0  0  0  0  0  0  0  0  0  0  0  0
  1  6  1  0  0  0  0
  2  7  1  6  0  0  0
  2  3  1  0  0  0  0
  2  1  1  0  0  0  0
  3  9  1  6  0  0  0
  3  4  1  0  0  0  0
  4 11  1  6  0  0  0
  4  5  1  0  0  0  0
  5 13  1  1  0  0  0
  6  5  1  0  0  0  0
  8  7  1  0  0  0  0
 10  9  1  0  0  0  0
 11 12  1  0  0  0  0
 13 14  1  0  0  0  0
M  END
>  <MODEL>
3

>  <REMARK>
 VINA RESULT:      -5.4      1.609      3.543
  4 active torsions:
  status: ('A' for Active; 'I' for Inactive)
    1  A    between atoms: C_2  and  O_10 
    2  A    between atoms: C_3  and  O_9 
    3  A    between atoms: C_4  and  O_8 
    4  A    between atoms: C_5  and  O_7 

>  <TORSDO>
F 4

$$$$
../results/processed/lowest_conf/7XP5/docked/s4.pdbqt
 OpenBabel07252416053D

 14 14  0  0  1  0  0  0  0  0999 V2000
  145.8370  132.8210   99.9110 C   0  0  0  0  0  2  0  0  0  0  0  0
  145.2230  134.2160  100.0990 C   0  0  2  0  0  3  0  0  0  0  0  0
  144.1710  134.2290  101.2210 C   0  0  1  0  0  3  0  0  0  0  0  0
  144.5600  133.2470  102.3160 C   0  0  1  0  0  3  0  0  0  0  0  0
  144.6320  131.8240  101.7190 C   0  0  1  0  0  3  0  0  0  0  0  0
  144.9440  131.7850  100.3320 O   0  0  0  0  0  0  0  0  0  0  0  0
  144.5960  134.6560   98.8850 O   0  0  0  0  0  0  0  0  0  0  0  0
  144.1340  133.8740   98.5250 H   0  0  0  0  0  0  0  0  0  0  0  0
  144.0750  135.5600  101.7480 O   0  0  0  0  0  0  0  0  0  0  0  0
  143.6350  136.0870  101.0500 H   0  0  0  0  0  0  0  0  0  0  0  0
  145.8410  133.6560  102.8470 O   0  0  0  0  0  0  0  0  0  0  0  0
  145.6180  134.1370  103.6750 H   0  0  0  0  0  0  0  0  0  0  0  0
  145.6070  131.0780  102.4410 O   0  0  0  0  0  0  0  0  0  0  0  0
  145.1810  130.2160  102.5960 H   0  0  0  0  0  0  0  0  0  0  0  0
  1  2  1  0  0  0  0
  1  6  1  0  0  0  0
  2  7  1  6  0  0  0
  2  3  1  0  0  0  0
  3  9  1  1  0  0  0
  3  4  1  0  0  0  0
  4 11  1  6  0  0  0
  5  4  1  0  0  0  0
  5 13  1  1  0  0  0
  6  5  1  0  0  0  0
  8  7  1  0  0  0  0
 10  9  1  0  0  0  0
 11 12  1  0  0  0  0
 13 14  1  0  0  0  0
M  END
>  <MODEL>
4

>  <REMARK>
 VINA RESULT:      -5.3      1.419      2.840
  4 active torsions:
  status: ('A' for Active; 'I' for Inactive)
    1  A    between atoms: C_2  and  O_10 
    2  A    between atoms: C_3  and  O_9 
    3  A    between atoms: C_4  and  O_8 
    4  A    between atoms: C_5  and  O_7 

>  <TORSDO>
F 4

$$$$
../results/processed/lowest_conf/7XP5/docked/s4.pdbqt
 OpenBabel07252416053D

 14 14  0  0  1  0  0  0  0  0999 V2000
  147.0720  133.7700  100.2630 C   0  0  0  0  0  2  0  0  0  0  0  0
  146.8120  132.3000   99.9060 C   0  0  2  0  0  3  0  0  0  0  0  0
  145.8330  131.6390  100.8900 C   0  0  1  0  0  3  0  0  0  0  0  0
  144.8100  132.6560  101.3760 C   0  0  1  0  0  3  0  0  0  0  0  0
  145.5440  133.8060  102.1010 C   0  0  1  0  0  3  0  0  0  0  0  0
  146.8790  134.0220  101.6590 O   0  0  0  0  0  0  0  0  0  0  0  0
  148.0390  131.5550   99.9200 O   0  0  0  0  0  0  0  0  0  0  0  0
  148.0800  131.0910   99.0620 H   0  0  0  0  0  0  0  0  0  0  0  0
  145.1810  130.5450  100.2290 O   0  0  0  0  0  0  0  0  0  0  0  0
  145.0030  130.8590   99.3190 H   0  0  0  0  0  0  0  0  0  0  0  0
  144.0850  133.1440  100.2240 O   0  0  0  0  0  0  0  0  0  0  0  0
  143.2320  132.6560  100.2510 H   0  0  0  0  0  0  0  0  0  0  0  0
  144.7930  135.0030  101.9290 O   0  0  0  0  0  0  0  0  0  0  0  0
  143.8870  134.6930  101.7510 H   0  0  0  0  0  0  0  0  0  0  0  0
  1  6  1  0  0  0  0
  2  7  1  1  0  0  0
  2  1  1  0  0  0  0
  2  3  1  0  0  0  0
  3  9  1  6  0  0  0
  3  4  1  0  0  0  0
  4 11  1  6  0  0  0
  4  5  1  0  0  0  0
  5 13  1  6  0  0  0
  6  5  1  0  0  0  0
  8  7  1  0  0  0  0
 10  9  1  0  0  0  0
 11 12  1  0  0  0  0
 14 13  1  0  0  0  0
M  END
>  <MODEL>
5

>  <REMARK>
 VINA RESULT:      -5.1      1.462      3.587
  4 active torsions:
  status: ('A' for Active; 'I' for Inactive)
    1  A    between atoms: C_2  and  O_10 
    2  A    between atoms: C_3  and  O_9 
    3  A    between atoms: C_4  and  O_8 
    4  A    between atoms: C_5  and  O_7 

>  <TORSDO>
F 4

$$$$
../results/processed/lowest_conf/7XP5/docked/s4.pdbqt
 OpenBabel07252416053D

 14 14  0  0  1  0  0  0  0  0999 V2000
  143.8180  134.3870  100.4070 C   0  0  0  0  0  2  0  0  0  0  0  0
  143.7230  134.7780  101.8890 C   0  0  2  0  0  3  0  0  0  0  0  0
  144.7130  133.9800  102.7530 C   0  0  1  0  0  3  0  0  0  0  0  0
  145.9820  133.6880  101.9640 C   0  0  1  0  0  3  0  0  0  0  0  0
  145.6230  132.8500  100.7180 C   0  0  1  0  0  3  0  0  0  0  0  0
  144.2980  133.0490  100.2380 O   0  0  0  0  0  0  0  0  0  0  0  0
  142.3970  134.5420  102.3860 O   0  0  0  0  0  0  0  0  0  0  0  0
  142.3540  134.9880  103.2540 H   0  0  0  0  0  0  0  0  0  0  0  0
  145.0160  134.7410  103.9310 O   0  0  0  0  0  0  0  0  0  0  0  0
  144.9090  134.1180  104.6790 H   0  0  0  0  0  0  0  0  0  0  0  0
  146.5740  134.9530  101.5890 O   0  0  0  0  0  0  0  0  0  0  0  0
  147.4230  134.7060  101.1600 H   0  0  0  0  0  0  0  0  0  0  0  0
  146.5490  133.1590   99.6800 O   0  0  0  0  0  0  0  0  0  0  0  0
  147.2180  132.4540   99.7400 H   0  0  0  0  0  0  0  0  0  0  0  0
  1  2  1  0  0  0  0
  2  7  1  1  0  0  0
  2  3  1  0  0  0  0
  3  9  1  1  0  0  0
  4 11  1  6  0  0  0
  4  3  1  0  0  0  0
  5 13  1  6  0  0  0
  5  4  1  0  0  0  0
  6  1  1  0  0  0  0
  6  5  1  0  0  0  0
  7  8  1  0  0  0  0
  9 10  1  0  0  0  0
 12 11  1  0  0  0  0
 13 14  1  0  0  0  0
M  END
>  <MODEL>
6

>  <REMARK>
 VINA RESULT:      -4.9      1.558      2.621
  4 active torsions:
  status: ('A' for Active; 'I' for Inactive)
    1  A    between atoms: C_2  and  O_10 
    2  A    between atoms: C_3  and  O_9 
    3  A    between atoms: C_4  and  O_8 
    4  A    between atoms: C_5  and  O_7 

>  <TORSDO>
F 4

$$$$
../results/processed/lowest_conf/7XP5/docked/s4.pdbqt
 OpenBabel07252416053D

 14 14  0  0  1  0  0  0  0  0999 V2000
  139.5150  144.1350   98.2800 C   0  0  0  0  0  2  0  0  0  0  0  0
  139.9200  143.7900   99.7210 C   0  0  2  0  0  3  0  0  0  0  0  0
  138.6950  143.4940  100.6010 C   0  0  1  0  0  3  0  0  0  0  0  0
  137.6030  142.8290   99.7760 C   0  0  1  0  0  3  0  0  0  0  0  0
  137.1780  143.7830   98.6370 C   0  0  1  0  0  3  0  0  0  0  0  0
  138.1950  144.6830   98.2140 O   0  0  0  0  0  0  0  0  0  0  0  0
  140.6490  144.8770  100.3110 O   0  0  0  0  0  0  0  0  0  0  0  0
  140.4790  144.8230  101.2710 H   0  0  0  0  0  0  0  0  0  0  0  0
  139.0980  142.6410  101.6820 O   0  0  0  0  0  0  0  0  0  0  0  0
  139.5490  141.8800  101.2610 H   0  0  0  0  0  0  0  0  0  0  0  0
  138.1340  141.5920   99.2490 O   0  0  0  0  0  0  0  0  0  0  0  0
  137.3490  141.0040   99.1750 H   0  0  0  0  0  0  0  0  0  0  0  0
  136.7520  143.0010   97.5250 O   0  0  0  0  0  0  0  0  0  0  0  0
  137.4360  143.1550   96.8490 H   0  0  0  0  0  0  0  0  0  0  0  0
  1  2  1  0  0  0  0
  2  7  1  1  0  0  0
  2  3  1  0  0  0  0
  3  9  1  1  0  0  0
  4 11  1  6  0  0  0
  4  3  1  0  0  0  0
  5 13  1  6  0  0  0
  5  4  1  0  0  0  0
  6  1  1  0  0  0  0
  6  5  1  0  0  0  0
  7  8  1  0  0  0  0
 10  9  1  0  0  0  0
 12 11  1  0  0  0  0
 14 13  1  0  0  0  0
M  END
>  <MODEL>
7

>  <REMARK>
 VINA RESULT:      -4.6     12.108     13.145
  4 active torsions:
  status: ('A' for Active; 'I' for Inactive)
    1  A    between atoms: C_2  and  O_10 
    2  A    between atoms: C_3  and  O_9 
    3  A    between atoms: C_4  and  O_8 
    4  A    between atoms: C_5  and  O_7 

>  <TORSDO>
F 4

$$$$
../results/processed/lowest_conf/7XP5/docked/s4.pdbqt
 OpenBabel07252416053D

 14 14  0  0  1  0  0  0  0  0999 V2000
  137.6760  142.8240   99.8740 C   0  0  0  0  0  2  0  0  0  0  0  0
  138.8010  143.5250  100.6500 C   0  0  2  0  0  3  0  0  0  0  0  0
  139.9900  143.8720   99.7390 C   0  0  1  0  0  3  0  0  0  0  0  0
  139.4980  144.2100   98.3390 C   0  0  1  0  0  3  0  0  0  0  0  0
  138.7630  142.9860   97.7510 C   0  0  1  0  0  3  0  0  0  0  0  0
  138.1720  142.1320   98.7240 O   0  0  0  0  0  0  0  0  0  0  0  0
  139.2760  142.6850  101.7130 O   0  0  0  0  0  0  0  0  0  0  0  0
  138.5170  142.5580  102.3130 H   0  0  0  0  0  0  0  0  0  0  0  0
  140.6980  144.9850  100.3060 O   0  0  0  0  0  0  0  0  0  0  0  0
  140.3480  145.0800  101.2160 H   0  0  0  0  0  0  0  0  0  0  0  0
  138.6140  145.3500   98.4410 O   0  0  0  0  0  0  0  0  0  0  0  0
  138.6920  145.7960   97.5680 H   0  0  0  0  0  0  0  0  0  0  0  0
  137.7540  143.4480   96.8580 O   0  0  0  0  0  0  0  0  0  0  0  0
  138.1240  143.2810   95.9730 H   0  0  0  0  0  0  0  0  0  0  0  0
  1  2  1  0  0  0  0
  2  7  1  1  0  0  0
  3  9  1  1  0  0  0
  3  2  1  0  0  0  0
  4 11  1  1  0  0  0
  4  3  1  0  0  0  0
  5 13  1  6  0  0  0
  5  4  1  0  0  0  0
  5  6  1  0  0  0  0
  6  1  1  0  0  0  0
  7  8  1  0  0  0  0
  9 10  1  0  0  0  0
 12 11  1  0  0  0  0
 14 13  1  0  0  0  0
M  END
>  <MODEL>
8

>  <REMARK>
 VINA RESULT:      -4.6     12.196     12.894
  4 active torsions:
  status: ('A' for Active; 'I' for Inactive)
    1  A    between atoms: C_2  and  O_10 
    2  A    between atoms: C_3  and  O_9 
    3  A    between atoms: C_4  and  O_8 
    4  A    between atoms: C_5  and  O_7 

>  <TORSDO>
F 4

$$$$
../results/processed/lowest_conf/7XP5/docked/s4.pdbqt
 OpenBabel07252416053D

 14 14  0  0  1  0  0  0  0  0999 V2000
  136.8300  143.1420   97.7460 C   0  0  0  0  0  2  0  0  0  0  0  0
  137.7460  143.7760   98.8030 C   0  0  2  0  0  3  0  0  0  0  0  0
  137.2770  143.4490  100.2310 C   0  0  1  0  0  3  0  0  0  0  0  0
  136.6550  142.0610  100.2750 C   0  0  1  0  0  3  0  0  0  0  0  0
  135.4330  142.0230   99.3300 C   0  0  1  0  0  3  0  0  0  0  0  0
  135.5030  142.9370   98.2420 O   0  0  0  0  0  0  0  0  0  0  0  0
  137.7740  145.2030   98.6520 O   0  0  0  0  0  0  0  0  0  0  0  0
  138.4610  145.3870   97.9830 H   0  0  0  0  0  0  0  0  0  0  0  0
  138.4050  143.5230  101.1160 O   0  0  0  0  0  0  0  0  0  0  0  0
  138.1480  144.1620  101.8130 H   0  0  0  0  0  0  0  0  0  0  0  0
  137.6620  141.1080   99.8630 O   0  0  0  0  0  0  0  0  0  0  0  0
  137.1610  140.4290   99.3580 H   0  0  0  0  0  0  0  0  0  0  0  0
  135.2920  140.7000   98.8230 O   0  0  0  0  0  0  0  0  0  0  0  0
  135.9120  140.6650   98.0730 H   0  0  0  0  0  0  0  0  0  0  0  0
  1  6  1  0  0  0  0
  1  2  1  0  0  0  0
  2  7  1  1  0  0  0
  2  3  1  0  0  0  0
  3  4  1  0  0  0  0
  3  9  1  1  0  0  0
  4 11  1  6  0  0  0
  5 13  1  6  0  0  0
  5  4  1  0  0  0  0
  6  5  1  0  0  0  0
  8  7  1  0  0  0  0
  9 10  1  0  0  0  0
 12 11  1  0  0  0  0
 14 13  1  0  0  0  0
M  END
>  <MODEL>
9

>  <REMARK>
 VINA RESULT:      -4.5     12.586     13.570
  4 active torsions:
  status: ('A' for Active; 'I' for Inactive)
    1  A    between atoms: C_2  and  O_10 
    2  A    between atoms: C_3  and  O_9 
    3  A    between atoms: C_4  and  O_8 
    4  A    between atoms: C_5  and  O_7 

>  <TORSDO>
F 4

$$$$
