../results/processed/lowest_conf/7XP5/docked/s4c.pdbqt
 OpenBabel07252416063D

 29 30  0  0  1  0  0  0  0  0999 V2000
  146.5690  134.0230   97.9770 C   0  0  1  0  0  3  0  0  0  0  0  0
  145.6430  134.0950   96.7460 C   0  0  2  0  0  3  0  0  0  0  0  0
  146.3060  133.6290   95.5480 O   0  0  0  0  0  0  0  0  0  0  0  0
  147.5230  134.3000   95.2620 C   0  0  1  0  0  3  0  0  0  0  0  0
  148.5300  134.1790   96.4170 C   0  0  2  0  0  3  0  0  0  0  0  0
  147.9150  134.7180   97.7060 C   0  0  1  0  0  3  0  0  0  0  0  0
  145.9780  134.5940   99.1520 O   0  0  0  0  0  0  0  0  0  0  0  0
  145.1810  133.6770   99.9040 C   0  0  2  0  0  3  0  0  0  0  0  0
  143.7980  134.0330   99.9020 O   0  0  0  0  0  0  0  0  0  0  0  0
  143.4270  134.8710  101.0020 C   0  0  1  0  0  3  0  0  0  0  0  0
  141.9940  135.3380  100.7790 C   0  0  0  0  0  1  0  0  0  0  0  0
  143.5660  134.1140  102.3390 C   0  0  1  0  0  3  0  0  0  0  0  0
  144.7140  133.0920  102.2860 C   0  0  1  0  0  3  0  0  0  0  0  0
  145.7910  133.5760  101.3210 C   0  0  1  0  0  3  0  0  0  0  0  0
  143.8090  135.0610  103.3870 O   0  0  0  0  0  0  0  0  0  0  0  0
  142.9520  135.1340  103.8600 H   0  0  0  0  0  0  0  0  0  0  0  0
  145.2570  132.9080  103.6040 O   0  0  0  0  0  0  0  0  0  0  0  0
  146.0180  133.5240  103.6460 H   0  0  0  0  0  0  0  0  0  0  0  0
  146.9050  132.6670  101.3520 O   0  0  0  0  0  0  0  0  0  0  0  0
  147.4680  132.9150  100.5920 H   0  0  0  0  0  0  0  0  0  0  0  0
  144.9760  135.4590   96.5040 C   0  0  0  0  0  2  0  0  0  0  0  0
  143.8140  135.5770   97.3340 O   0  0  0  0  0  0  0  0  0  0  0  0
  143.6750  136.5290   97.4870 H   0  0  0  0  0  0  0  0  0  0  0  0
  147.7640  136.1420   97.5920 O   0  0  0  0  0  0  0  0  0  0  0  0
  147.1200  136.3850   98.2900 H   0  0  0  0  0  0  0  0  0  0  0  0
  149.7290  134.9150   96.1220 O   0  0  0  0  0  0  0  0  0  0  0  0
  150.2250  134.3470   95.4970 H   0  0  0  0  0  0  0  0  0  0  0  0
  148.1100  133.6780   94.1230 O   0  0  0  0  0  0  0  0  0  0  0  0
  147.4060  133.6730   93.4520 H   0  0  0  0  0  0  0  0  0  0  0  0
  1  7  1  1  0  0  0
  2 21  1  6  0  0  0
  2  1  1  0  0  0  0
  3  2  1  0  0  0  0
  4 28  1  6  0  0  0
  4  3  1  0  0  0  0
  4  5  1  0  0  0  0
  5 26  1  6  0  0  0
  5  6  1  0  0  0  0
  6 24  1  6  0  0  0
  6  1  1  0  0  0  0
  8  7  1  6  0  0  0
  8 14  1  0  0  0  0
  9  8  1  0  0  0  0
  9 10  1  0  0  0  0
 10 11  1  6  0  0  0
 10 12  1  0  0  0  0
 12 15  1  1  0  0  0
 13 12  1  0  0  0  0
 13 17  1  1  0  0  0
 14 19  1  6  0  0  0
 14 13  1  0  0  0  0
 15 16  1  0  0  0  0
 17 18  1  0  0  0  0
 20 19  1  0  0  0  0
 21 22  1  0  0  0  0
 22 23  1  0  0  0  0
 24 25  1  0  0  0  0
 27 26  1  0  0  0  0
 29 28  1  0  0  0  0
M  END
>  <MODEL>
1

>  <REMARK>
 VINA RESULT:      -7.1      0.000      0.000
  10 active torsions:
  status: ('A' for Active; 'I' for Inactive)
    1  A    between atoms: C_4  and  O_5 
    2  A    between atoms: O_5  and  C_6 
    3  A    between atoms: C_7  and  C_8 
    4  A    between atoms: C_8  and  O_9 
    5  A    between atoms: C_11  and  O_12 
    6  A    between atoms: C_13  and  O_14 
    7  A    between atoms: C_15  and  O_16 
    8  A    between atoms: C_17  and  O_18 
    9  A    between atoms: C_19  and  O_20 
   10  A    between atoms: C_21  and  O_22 

>  <TORSDO>
F 10

$$$$
../results/processed/lowest_conf/7XP5/docked/s4c.pdbqt
 OpenBabel07252416063D

 29 30  0  0  1  0  0  0  0  0999 V2000
  145.4990  133.5650   99.9340 C   0  0  1  0  0  3  0  0  0  0  0  0
  144.8280  132.5780  100.9130 C   0  0  2  0  0  3  0  0  0  0  0  0
  144.6690  133.1540  102.2300 O   0  0  0  0  0  0  0  0  0  0  0  0
  145.8750  133.6360  102.8010 C   0  0  1  0  0  3  0  0  0  0  0  0
  146.5420  134.7020  101.9160 C   0  0  2  0  0  3  0  0  0  0  0  0
  146.8020  134.1360  100.5220 C   0  0  1  0  0  3  0  0  0  0  0  0
  145.7810  132.9780   98.6580 O   0  0  0  0  0  0  0  0  0  0  0  0
  146.5960  133.7930   97.8110 C   0  0  2  0  0  3  0  0  0  0  0  0
  145.8300  134.7600   97.0900 O   0  0  0  0  0  0  0  0  0  0  0  0
  145.3960  134.2960   95.8070 C   0  0  1  0  0  3  0  0  0  0  0  0
  144.4360  135.3290   95.2310 C   0  0  0  0  0  1  0  0  0  0  0  0
  146.6000  134.0690   94.8700 C   0  0  1  0  0  3  0  0  0  0  0  0
  147.8430  133.6210   95.6560 C   0  0  1  0  0  3  0  0  0  0  0  0
  147.4170  132.8500   96.9010 C   0  0  1  0  0  3  0  0  0  0  0  0
  146.2540  133.0710   93.9010 O   0  0  0  0  0  0  0  0  0  0  0  0
  145.2730  133.0610   93.8930 H   0  0  0  0  0  0  0  0  0  0  0  0
  148.6770  132.8060   94.8150 O   0  0  0  0  0  0  0  0  0  0  0  0
  149.5900  132.9800   95.1270 H   0  0  0  0  0  0  0  0  0  0  0  0
  148.5830  132.3490   97.5770 O   0  0  0  0  0  0  0  0  0  0  0  0
  148.5900  131.3860   97.4110 H   0  0  0  0  0  0  0  0  0  0  0  0
  145.4860  131.1920  101.0000 C   0  0  0  0  0  2  0  0  0  0  0  0
  144.9860  130.3590   99.9460 O   0  0  0  0  0  0  0  0  0  0  0  0
  144.1980  129.9060  100.2970 H   0  0  0  0  0  0  0  0  0  0  0  0
  147.8290  133.1350  100.6070 O   0  0  0  0  0  0  0  0  0  0  0  0
  148.5760  133.5760  101.0640 H   0  0  0  0  0  0  0  0  0  0  0  0
  147.7880  135.1290  102.4910 O   0  0  0  0  0  0  0  0  0  0  0  0
  147.7560  136.1080  102.4620 H   0  0  0  0  0  0  0  0  0  0  0  0
  145.5550  134.2590  104.0410 O   0  0  0  0  0  0  0  0  0  0  0  0
  146.3780  134.6980  104.3180 H   0  0  0  0  0  0  0  0  0  0  0  0
  1  7  1  6  0  0  0
  1  6  1  0  0  0  0
  1  2  1  0  0  0  0
  2 21  1  1  0  0  0
  2  3  1  0  0  0  0
  3  4  1  0  0  0  0
  4 28  1  1  0  0  0
  5 26  1  1  0  0  0
  5  4  1  0  0  0  0
  6 24  1  1  0  0  0
  6  5  1  0  0  0  0
  8  7  1  6  0  0  0
  9  8  1  0  0  0  0
 10 11  1  6  0  0  0
 10  9  1  0  0  0  0
 12 15  1  6  0  0  0
 12 13  1  0  0  0  0
 12 10  1  0  0  0  0
 13 17  1  6  0  0  0
 13 14  1  0  0  0  0
 14 19  1  1  0  0  0
 14  8  1  0  0  0  0
 16 15  1  0  0  0  0
 17 18  1  0  0  0  0
 20 19  1  0  0  0  0
 22 23  1  0  0  0  0
 22 21  1  0  0  0  0
 24 25  1  0  0  0  0
 27 26  1  0  0  0  0
 28 29  1  0  0  0  0
M  END
>  <MODEL>
2

>  <REMARK>
 VINA RESULT:      -6.6      1.909      6.239
  10 active torsions:
  status: ('A' for Active; 'I' for Inactive)
    1  A    between atoms: C_4  and  O_5 
    2  A    between atoms: O_5  and  C_6 
    3  A    between atoms: C_7  and  C_8 
    4  A    between atoms: C_8  and  O_9 
    5  A    between atoms: C_11  and  O_12 
    6  A    between atoms: C_13  and  O_14 
    7  A    between atoms: C_15  and  O_16 
    8  A    between atoms: C_17  and  O_18 
    9  A    between atoms: C_19  and  O_20 
   10  A    between atoms: C_21  and  O_22 

>  <TORSDO>
F 10

$$$$
../results/processed/lowest_conf/7XP5/docked/s4c.pdbqt
 OpenBabel07252416063D

 29 30  0  0  1  0  0  0  0  0999 V2000
  147.1170  132.2520  100.1020 C   0  0  1  0  0  3  0  0  0  0  0  0
  146.8400  133.6960   99.6340 C   0  0  2  0  0  3  0  0  0  0  0  0
  146.3650  134.5290  100.7170 O   0  0  0  0  0  0  0  0  0  0  0  0
  145.2180  134.0200  101.3780 C   0  0  1  0  0  3  0  0  0  0  0  0
  145.4650  132.6180  101.9580 C   0  0  2  0  0  3  0  0  0  0  0  0
  145.9070  131.6640  100.8500 C   0  0  1  0  0  3  0  0  0  0  0  0
  147.4690  131.3750   99.0250 O   0  0  0  0  0  0  0  0  0  0  0  0
  148.8630  131.3790   98.7060 C   0  0  2  0  0  3  0  0  0  0  0  0
  149.1160  131.8600   97.3850 O   0  0  0  0  0  0  0  0  0  0  0  0
  149.1480  130.8200   96.4010 C   0  0  1  0  0  3  0  0  0  0  0  0
  149.2250  131.4720   95.0260 C   0  0  0  0  0  1  0  0  0  0  0  0
  150.3460  129.8780   96.6390 C   0  0  1  0  0  3  0  0  0  0  0  0
  150.6750  129.7600   98.1360 C   0  0  1  0  0  3  0  0  0  0  0  0
  149.4070  129.9540   98.9600 C   0  0  1  0  0  3  0  0  0  0  0  0
  150.0310  128.5830   96.1090 O   0  0  0  0  0  0  0  0  0  0  0  0
  149.2740  128.2700   96.6490 H   0  0  0  0  0  0  0  0  0  0  0  0
  151.2610  128.4740   98.4010 O   0  0  0  0  0  0  0  0  0  0  0  0
  152.2280  128.6260   98.3450 H   0  0  0  0  0  0  0  0  0  0  0  0
  149.7040  129.7450  100.3520 O   0  0  0  0  0  0  0  0  0  0  0  0
  149.8860  130.6320  100.7190 H   0  0  0  0  0  0  0  0  0  0  0  0
  145.9230  133.8230   98.4060 C   0  0  0  0  0  2  0  0  0  0  0  0
  146.5610  133.2250   97.2700 O   0  0  0  0  0  0  0  0  0  0  0  0
  146.6070  133.9140   96.5820 H   0  0  0  0  0  0  0  0  0  0  0  0
  144.8000  131.4300   99.9660 O   0  0  0  0  0  0  0  0  0  0  0  0
  145.0660  131.8330   99.1130 H   0  0  0  0  0  0  0  0  0  0  0  0
  144.2710  132.1060  102.5720 O   0  0  0  0  0  0  0  0  0  0  0  0
  143.8660  132.8800  103.0170 H   0  0  0  0  0  0  0  0  0  0  0  0
  144.9240  134.8820  102.4740 O   0  0  0  0  0  0  0  0  0  0  0  0
  145.7900  135.0830  102.8710 H   0  0  0  0  0  0  0  0  0  0  0  0
  1  7  1  6  0  0  0
  1  6  1  0  0  0  0
  2 21  1  6  0  0  0
  2  1  1  0  0  0  0
  2  3  1  0  0  0  0
  3  4  1  0  0  0  0
  4  5  1  0  0  0  0
  4 28  1  1  0  0  0
  5 26  1  6  0  0  0
  6 24  1  6  0  0  0
  6  5  1  0  0  0  0
  8 14  1  0  0  0  0
  8  7  1  6  0  0  0
  9  8  1  0  0  0  0
 10 11  1  6  0  0  0
 10 12  1  0  0  0  0
 10  9  1  0  0  0  0
 12 15  1  1  0  0  0
 12 13  1  0  0  0  0
 13 17  1  6  0  0  0
 13 14  1  0  0  0  0
 14 19  1  1  0  0  0
 15 16  1  0  0  0  0
 18 17  1  0  0  0  0
 19 20  1  0  0  0  0
 22 21  1  0  0  0  0
 23 22  1  0  0  0  0
 25 24  1  0  0  0  0
 26 27  1  0  0  0  0
 28 29  1  0  0  0  0
M  END
>  <MODEL>
3

>  <REMARK>
 VINA RESULT:      -6.6      3.406      6.876
  10 active torsions:
  status: ('A' for Active; 'I' for Inactive)
    1  A    between atoms: C_4  and  O_5 
    2  A    between atoms: O_5  and  C_6 
    3  A    between atoms: C_7  and  C_8 
    4  A    between atoms: C_8  and  O_9 
    5  A    between atoms: C_11  and  O_12 
    6  A    between atoms: C_13  and  O_14 
    7  A    between atoms: C_15  and  O_16 
    8  A    between atoms: C_17  and  O_18 
    9  A    between atoms: C_19  and  O_20 
   10  A    between atoms: C_21  and  O_22 

>  <TORSDO>
F 10

$$$$
../results/processed/lowest_conf/7XP5/docked/s4c.pdbqt
 OpenBabel07252416063D

 29 30  0  0  1  0  0  0  0  0999 V2000
  145.6160  133.7550   99.9450 C   0  0  1  0  0  3  0  0  0  0  0  0
  144.7530  134.7730  100.7220 C   0  0  2  0  0  3  0  0  0  0  0  0
  144.9780  134.6880  102.1480 O   0  0  0  0  0  0  0  0  0  0  0  0
  144.7780  133.3910  102.6890 C   0  0  1  0  0  3  0  0  0  0  0  0
  145.6870  132.3450  102.0220 C   0  0  2  0  0  3  0  0  0  0  0  0
  145.4520  132.3340  100.5130 C   0  0  1  0  0  3  0  0  0  0  0  0
  145.3230  133.7340   98.5430 O   0  0  0  0  0  0  0  0  0  0  0  0
  146.3080  134.3810   97.7340 C   0  0  2  0  0  3  0  0  0  0  0  0
  145.7330  135.3250   96.8300 O   0  0  0  0  0  0  0  0  0  0  0  0
  145.4130  134.7650   95.5530 C   0  0  1  0  0  3  0  0  0  0  0  0
  144.6330  135.8060   94.7600 C   0  0  0  0  0  1  0  0  0  0  0  0
  146.6930  134.3380   94.8050 C   0  0  1  0  0  3  0  0  0  0  0  0
  147.7840  133.8740   95.7850 C   0  0  1  0  0  3  0  0  0  0  0  0
  147.1380  133.2810   97.0330 C   0  0  1  0  0  3  0  0  0  0  0  0
  146.3720  133.2740   93.9000 O   0  0  0  0  0  0  0  0  0  0  0  0
  147.2110  132.7780   93.7900 H   0  0  0  0  0  0  0  0  0  0  0  0
  148.6290  132.9060   95.1420 O   0  0  0  0  0  0  0  0  0  0  0  0
  148.5430  133.0980   94.1850 H   0  0  0  0  0  0  0  0  0  0  0  0
  148.1600  132.7590   97.9000 O   0  0  0  0  0  0  0  0  0  0  0  0
  148.3930  133.4920   98.5030 H   0  0  0  0  0  0  0  0  0  0  0  0
  143.2500  134.7360  100.4030 C   0  0  0  0  0  2  0  0  0  0  0  0
  142.9970  135.4880   99.2090 O   0  0  0  0  0  0  0  0  0  0  0  0
  142.3790  136.2020   99.4540 H   0  0  0  0  0  0  0  0  0  0  0  0
  144.1450  131.8040  100.2470 O   0  0  0  0  0  0  0  0  0  0  0  0
  143.7400  132.4330   99.6130 H   0  0  0  0  0  0  0  0  0  0  0  0
  145.4230  131.0350  102.5500 O   0  0  0  0  0  0  0  0  0  0  0  0
  145.9810  130.4320  102.0170 H   0  0  0  0  0  0  0  0  0  0  0  0
  145.1260  133.4330  104.0690 O   0  0  0  0  0  0  0  0  0  0  0  0
  144.3650  133.0380  104.5290 H   0  0  0  0  0  0  0  0  0  0  0  0
  1  7  1  6  0  0  0
  1  6  1  0  0  0  0
  1  2  1  0  0  0  0
  2 21  1  1  0  0  0
  2  3  1  0  0  0  0
  3  4  1  0  0  0  0
  4 28  1  1  0  0  0
  5 26  1  1  0  0  0
  5  4  1  0  0  0  0
  6 24  1  1  0  0  0
  6  5  1  0  0  0  0
  8  7  1  6  0  0  0
  9  8  1  0  0  0  0
 10 11  1  6  0  0  0
 10  9  1  0  0  0  0
 12 15  1  6  0  0  0
 12 10  1  0  0  0  0
 12 13  1  0  0  0  0
 13 17  1  6  0  0  0
 13 14  1  0  0  0  0
 14  8  1  0  0  0  0
 14 19  1  1  0  0  0
 16 15  1  0  0  0  0
 18 17  1  0  0  0  0
 19 20  1  0  0  0  0
 22 23  1  0  0  0  0
 22 21  1  0  0  0  0
 25 24  1  0  0  0  0
 27 26  1  0  0  0  0
 28 29  1  0  0  0  0
M  END
>  <MODEL>
4

>  <REMARK>
 VINA RESULT:      -6.5      1.529      6.304
  10 active torsions:
  status: ('A' for Active; 'I' for Inactive)
    1  A    between atoms: C_4  and  O_5 
    2  A    between atoms: O_5  and  C_6 
    3  A    between atoms: C_7  and  C_8 
    4  A    between atoms: C_8  and  O_9 
    5  A    between atoms: C_11  and  O_12 
    6  A    between atoms: C_13  and  O_14 
    7  A    between atoms: C_15  and  O_16 
    8  A    between atoms: C_17  and  O_18 
    9  A    between atoms: C_19  and  O_20 
   10  A    between atoms: C_21  and  O_22 

>  <TORSDO>
F 10

$$$$
../results/processed/lowest_conf/7XP5/docked/s4c.pdbqt
 OpenBabel07252416063D

 29 30  0  0  1  0  0  0  0  0999 V2000
  146.2990  133.8150   99.5860 C   0  0  1  0  0  3  0  0  0  0  0  0
  145.3850  132.7050  100.1480 C   0  0  2  0  0  3  0  0  0  0  0  0
  144.7930  133.0870  101.4120 O   0  0  0  0  0  0  0  0  0  0  0  0
  145.7370  133.4660  102.4010 C   0  0  1  0  0  3  0  0  0  0  0  0
  146.6150  134.6400  101.9370 C   0  0  2  0  0  3  0  0  0  0  0  0
  147.3260  134.2780  100.6350 C   0  0  1  0  0  3  0  0  0  0  0  0
  146.9940  133.4140   98.3980 O   0  0  0  0  0  0  0  0  0  0  0  0
  146.6640  134.1890   97.2440 C   0  0  2  0  0  3  0  0  0  0  0  0
  146.2070  133.3800   96.1590 O   0  0  0  0  0  0  0  0  0  0  0  0
  147.2570  132.9700   95.2770 C   0  0  1  0  0  3  0  0  0  0  0  0
  146.6810  131.9620   94.2910 C   0  0  0  0  0  1  0  0  0  0  0  0
  147.8620  134.1850   94.5430 C   0  0  1  0  0  3  0  0  0  0  0  0
  147.8150  135.4470   95.4200 C   0  0  1  0  0  3  0  0  0  0  0  0
  147.8950  135.0570   96.8920 C   0  0  1  0  0  3  0  0  0  0  0  0
  149.2200  133.8890   94.1940 O   0  0  0  0  0  0  0  0  0  0  0  0
  149.6570  133.6770   95.0470 H   0  0  0  0  0  0  0  0  0  0  0  0
  148.9010  136.3200   95.0670 O   0  0  0  0  0  0  0  0  0  0  0  0
  148.6000  136.7720   94.2510 H   0  0  0  0  0  0  0  0  0  0  0  0
  147.9510  136.2440   97.7010 O   0  0  0  0  0  0  0  0  0  0  0  0
  148.9020  136.4280   97.8330 H   0  0  0  0  0  0  0  0  0  0  0  0
  146.0280  131.3120  100.2460 C   0  0  0  0  0  2  0  0  0  0  0  0
  145.0050  130.3100  100.1900 O   0  0  0  0  0  0  0  0  0  0  0  0
  144.9980  129.9680   99.2760 H   0  0  0  0  0  0  0  0  0  0  0  0
  148.3050  133.2620  100.9030 O   0  0  0  0  0  0  0  0  0  0  0  0
  148.5670  132.9230  100.0220 H   0  0  0  0  0  0  0  0  0  0  0  0
  147.5960  134.9640  102.9360 O   0  0  0  0  0  0  0  0  0  0  0  0
  147.1190  135.5220  103.5840 H   0  0  0  0  0  0  0  0  0  0  0  0
  145.0170  133.9080  103.5480 O   0  0  0  0  0  0  0  0  0  0  0  0
  144.8500  133.0990  104.0630 H   0  0  0  0  0  0  0  0  0  0  0  0
  1  7  1  6  0  0  0
  1  2  1  0  0  0  0
  1  6  1  0  0  0  0
  2 21  1  1  0  0  0
  2  3  1  0  0  0  0
  3  4  1  0  0  0  0
  4 28  1  1  0  0  0
  5  4  1  0  0  0  0
  5 26  1  1  0  0  0
  6 24  1  1  0  0  0
  6  5  1  0  0  0  0
  8  7  1  1  0  0  0
  9  8  1  0  0  0  0
 10 11  1  6  0  0  0
 10  9  1  0  0  0  0
 12 15  1  1  0  0  0
 12 10  1  0  0  0  0
 12 13  1  0  0  0  0
 13 17  1  6  0  0  0
 13 14  1  0  0  0  0
 14  8  1  0  0  0  0
 14 19  1  1  0  0  0
 15 16  1  0  0  0  0
 18 17  1  0  0  0  0
 19 20  1  0  0  0  0
 22 21  1  0  0  0  0
 23 22  1  0  0  0  0
 25 24  1  0  0  0  0
 26 27  1  0  0  0  0
 28 29  1  0  0  0  0
M  END
>  <MODEL>
5

>  <REMARK>
 VINA RESULT:      -6.2      1.876      6.597
  10 active torsions:
  status: ('A' for Active; 'I' for Inactive)
    1  A    between atoms: C_4  and  O_5 
    2  A    between atoms: O_5  and  C_6 
    3  A    between atoms: C_7  and  C_8 
    4  A    between atoms: C_8  and  O_9 
    5  A    between atoms: C_11  and  O_12 
    6  A    between atoms: C_13  and  O_14 
    7  A    between atoms: C_15  and  O_16 
    8  A    between atoms: C_17  and  O_18 
    9  A    between atoms: C_19  and  O_20 
   10  A    between atoms: C_21  and  O_22 

>  <TORSDO>
F 10

$$$$
../results/processed/lowest_conf/7XP5/docked/s4c.pdbqt
 OpenBabel07252416063D

 29 30  0  0  1  0  0  0  0  0999 V2000
  145.7290  133.7840   99.9140 C   0  0  1  0  0  3  0  0  0  0  0  0
  144.7610  134.7610  100.6140 C   0  0  2  0  0  3  0  0  0  0  0  0
  144.8890  134.7040  102.0540 O   0  0  0  0  0  0  0  0  0  0  0  0
  144.7220  133.4040  102.5980 C   0  0  1  0  0  3  0  0  0  0  0  0
  145.7300  132.4030  102.0110 C   0  0  2  0  0  3  0  0  0  0  0  0
  145.6030  132.3630  100.4900 C   0  0  1  0  0  3  0  0  0  0  0  0
  145.5370  133.7320   98.4950 O   0  0  0  0  0  0  0  0  0  0  0  0
  146.7470  133.5700   97.7510 C   0  0  2  0  0  3  0  0  0  0  0  0
  147.8210  134.3430   98.2880 O   0  0  0  0  0  0  0  0  0  0  0  0
  147.9290  135.6450   97.7030 C   0  0  1  0  0  3  0  0  0  0  0  0
  148.9700  136.4330   98.4890 C   0  0  0  0  0  1  0  0  0  0  0  0
  148.3130  135.5460   96.2120 C   0  0  1  0  0  3  0  0  0  0  0  0
  147.7320  134.2760   95.5690 C   0  0  1  0  0  3  0  0  0  0  0  0
  146.4350  133.8890   96.2710 C   0  0  1  0  0  3  0  0  0  0  0  0
  147.8200  136.7050   95.5260 O   0  0  0  0  0  0  0  0  0  0  0  0
  147.4620  136.3600   94.6800 H   0  0  0  0  0  0  0  0  0  0  0  0
  147.5020  134.5070   94.1690 O   0  0  0  0  0  0  0  0  0  0  0  0
  146.5670  134.7950   94.1150 H   0  0  0  0  0  0  0  0  0  0  0  0
  145.8460  132.7600   95.6020 O   0  0  0  0  0  0  0  0  0  0  0  0
  146.5050  132.4740   94.9390 H   0  0  0  0  0  0  0  0  0  0  0  0
  143.2880  134.6400  100.1930 C   0  0  0  0  0  2  0  0  0  0  0  0
  143.0690  135.3990   98.9960 O   0  0  0  0  0  0  0  0  0  0  0  0
  142.9320  134.7550   98.2780 H   0  0  0  0  0  0  0  0  0  0  0  0
  144.3470  131.7590  100.1410 O   0  0  0  0  0  0  0  0  0  0  0  0
  143.7490  132.5110   99.9490 H   0  0  0  0  0  0  0  0  0  0  0  0
  145.5000  131.0860  102.5380 O   0  0  0  0  0  0  0  0  0  0  0  0
  144.5260  130.9990  102.5820 H   0  0  0  0  0  0  0  0  0  0  0  0
  144.9700  133.4800  103.9980 O   0  0  0  0  0  0  0  0  0  0  0  0
  144.1680  133.1150  104.4130 H   0  0  0  0  0  0  0  0  0  0  0  0
  1  7  1  6  0  0  0
  1  6  1  0  0  0  0
  1  2  1  0  0  0  0
  2 21  1  1  0  0  0
  2  3  1  0  0  0  0
  3  4  1  0  0  0  0
  4 28  1  1  0  0  0
  5 26  1  1  0  0  0
  5  4  1  0  0  0  0
  6 24  1  1  0  0  0
  6  5  1  0  0  0  0
  8  9  1  0  0  0  0
  8  7  1  1  0  0  0
 10  9  1  0  0  0  0
 10 11  1  1  0  0  0
 12 15  1  6  0  0  0
 12 10  1  0  0  0  0
 13 17  1  6  0  0  0
 13 12  1  0  0  0  0
 13 14  1  0  0  0  0
 14 19  1  6  0  0  0
 14  8  1  0  0  0  0
 16 15  1  0  0  0  0
 18 17  1  0  0  0  0
 20 19  1  0  0  0  0
 22 21  1  0  0  0  0
 23 22  1  0  0  0  0
 25 24  1  0  0  0  0
 26 27  1  0  0  0  0
 28 29  1  0  0  0  0
M  END
>  <MODEL>
6

>  <REMARK>
 VINA RESULT:      -6.2      1.448      6.389
  10 active torsions:
  status: ('A' for Active; 'I' for Inactive)
    1  A    between atoms: C_4  and  O_5 
    2  A    between atoms: O_5  and  C_6 
    3  A    between atoms: C_7  and  C_8 
    4  A    between atoms: C_8  and  O_9 
    5  A    between atoms: C_11  and  O_12 
    6  A    between atoms: C_13  and  O_14 
    7  A    between atoms: C_15  and  O_16 
    8  A    between atoms: C_17  and  O_18 
    9  A    between atoms: C_19  and  O_20 
   10  A    between atoms: C_21  and  O_22 

>  <TORSDO>
F 10

$$$$
../results/processed/lowest_conf/7XP5/docked/s4c.pdbqt
 OpenBabel07252416063D

 29 30  0  0  1  0  0  0  0  0999 V2000
  137.9520  142.5330   98.3390 C   0  0  1  0  0  3  0  0  0  0  0  0
  137.8290  142.0820   99.8100 C   0  0  2  0  0  3  0  0  0  0  0  0
  136.4640  141.7480  100.1560 O   0  0  0  0  0  0  0  0  0  0  0  0
  135.5320  142.7870   99.9020 C   0  0  1  0  0  3  0  0  0  0  0  0
  135.5360  143.2130   98.4240 C   0  0  2  0  0  3  0  0  0  0  0  0
  136.9410  143.6440   98.0080 C   0  0  1  0  0  3  0  0  0  0  0  0
  139.2700  142.9870   98.0050 O   0  0  0  0  0  0  0  0  0  0  0  0
  139.3000  143.9630   96.9610 C   0  0  2  0  0  3  0  0  0  0  0  0
  139.5730  143.3830   95.6850 O   0  0  0  0  0  0  0  0  0  0  0  0
  140.9670  143.3570   95.3610 C   0  0  1  0  0  3  0  0  0  0  0  0
  141.1410  142.5450   94.0830 C   0  0  0  0  0  1  0  0  0  0  0  0
  141.5180  144.7880   95.1930 C   0  0  1  0  0  3  0  0  0  0  0  0
  140.7900  145.7790   96.1160 C   0  0  1  0  0  3  0  0  0  0  0  0
  140.3120  145.0580   97.3720 C   0  0  1  0  0  3  0  0  0  0  0  0
  142.9200  144.7850   95.4940 O   0  0  0  0  0  0  0  0  0  0  0  0
  143.2130  143.8670   95.3090 H   0  0  0  0  0  0  0  0  0  0  0  0
  141.6750  146.8590   96.4560 O   0  0  0  0  0  0  0  0  0  0  0  0
  141.9760  146.6560   97.3670 H   0  0  0  0  0  0  0  0  0  0  0  0
  139.7210  146.0090   98.2740 O   0  0  0  0  0  0  0  0  0  0  0  0
  138.9600  146.3910   97.7930 H   0  0  0  0  0  0  0  0  0  0  0  0
  138.4330  143.0450  100.8450 C   0  0  0  0  0  2  0  0  0  0  0  0
  139.8630  143.0130  100.7480 O   0  0  0  0  0  0  0  0  0  0  0  0
  140.0860  143.2390   99.8270 H   0  0  0  0  0  0  0  0  0  0  0  0
  137.2680  144.8740   98.6730 O   0  0  0  0  0  0  0  0  0  0  0  0
  138.2330  144.9840   98.5420 H   0  0  0  0  0  0  0  0  0  0  0  0
  134.6250  144.3030   98.2100 O   0  0  0  0  0  0  0  0  0  0  0  0
  134.7100  144.5180   97.2580 H   0  0  0  0  0  0  0  0  0  0  0  0
  134.2300  142.2890  100.1930 O   0  0  0  0  0  0  0  0  0  0  0  0
  133.7600  143.0420  100.5930 H   0  0  0  0  0  0  0  0  0  0  0  0
  1  7  1  1  0  0  0
  1  2  1  0  0  0  0
  2  3  1  0  0  0  0
  2 21  1  1  0  0  0
  4  3  1  0  0  0  0
  4 28  1  6  0  0  0
  5 26  1  1  0  0  0
  5  4  1  0  0  0  0
  6  1  1  0  0  0  0
  6  5  1  0  0  0  0
  6 24  1  1  0  0  0
  8 14  1  0  0  0  0
  8  7  1  1  0  0  0
  9  8  1  0  0  0  0
 10 11  1  6  0  0  0
 10  9  1  0  0  0  0
 12 10  1  0  0  0  0
 12 15  1  1  0  0  0
 12 13  1  0  0  0  0
 13 17  1  1  0  0  0
 13 14  1  0  0  0  0
 14 19  1  1  0  0  0
 16 15  1  0  0  0  0
 17 18  1  0  0  0  0
 20 19  1  0  0  0  0
 22 21  1  0  0  0  0
 23 22  1  0  0  0  0
 25 24  1  0  0  0  0
 27 26  1  0  0  0  0
 28 29  1  0  0  0  0
M  END
>  <MODEL>
7

>  <REMARK>
 VINA RESULT:      -6.1     10.652     13.456
  10 active torsions:
  status: ('A' for Active; 'I' for Inactive)
    1  A    between atoms: C_4  and  O_5 
    2  A    between atoms: O_5  and  C_6 
    3  A    between atoms: C_7  and  C_8 
    4  A    between atoms: C_8  and  O_9 
    5  A    between atoms: C_11  and  O_12 
    6  A    between atoms: C_13  and  O_14 
    7  A    between atoms: C_15  and  O_16 
    8  A    between atoms: C_17  and  O_18 
    9  A    between atoms: C_19  and  O_20 
   10  A    between atoms: C_21  and  O_22 

>  <TORSDO>
F 10

$$$$
../results/processed/lowest_conf/7XP5/docked/s4c.pdbqt
 OpenBabel07252416063D

 29 30  0  0  1  0  0  0  0  0999 V2000
  136.5380  143.2800   99.5080 C   0  0  1  0  0  3  0  0  0  0  0  0
  137.0780  142.7510  100.8540 C   0  0  2  0  0  3  0  0  0  0  0  0
  138.2870  143.4380  101.2540 O   0  0  0  0  0  0  0  0  0  0  0  0
  139.3210  143.4010  100.2840 C   0  0  1  0  0  3  0  0  0  0  0  0
  138.8740  144.0090   98.9440 C   0  0  2  0  0  3  0  0  0  0  0  0
  137.6340  143.2830   98.4280 C   0  0  1  0  0  3  0  0  0  0  0  0
  135.4120  142.5340   99.0290 O   0  0  0  0  0  0  0  0  0  0  0  0
  134.9640  142.9310   97.7310 C   0  0  2  0  0  3  0  0  0  0  0  0
  134.0380  144.0170   97.7860 O   0  0  0  0  0  0  0  0  0  0  0  0
  132.6720  143.5940   97.8550 C   0  0  1  0  0  3  0  0  0  0  0  0
  131.8080  144.8230   98.1080 C   0  0  0  0  0  1  0  0  0  0  0  0
  132.2540  142.8750   96.5560 C   0  0  1  0  0  3  0  0  0  0  0  0
  133.4370  142.1190   95.9300 C   0  0  1  0  0  3  0  0  0  0  0  0
  134.4030  141.6750   97.0230 C   0  0  1  0  0  3  0  0  0  0  0  0
  131.1950  141.9560   96.8520 O   0  0  0  0  0  0  0  0  0  0  0  0
  130.4200  142.3000   96.3570 H   0  0  0  0  0  0  0  0  0  0  0  0
  132.9500  140.9860   95.1920 O   0  0  0  0  0  0  0  0  0  0  0  0
  132.6600  140.3490   95.8790 H   0  0  0  0  0  0  0  0  0  0  0  0
  135.4540  140.8850   96.4420 O   0  0  0  0  0  0  0  0  0  0  0  0
  136.1920  141.5050   96.2810 H   0  0  0  0  0  0  0  0  0  0  0  0
  137.2650  141.2270  100.9320 C   0  0  0  0  0  2  0  0  0  0  0  0
  136.3660  140.5880  100.0170 O   0  0  0  0  0  0  0  0  0  0  0  0
  136.6720  140.8150   99.1200 H   0  0  0  0  0  0  0  0  0  0  0  0
  138.0010  141.9490   98.0410 O   0  0  0  0  0  0  0  0  0  0  0  0
  137.9480  141.9460   97.0620 H   0  0  0  0  0  0  0  0  0  0  0  0
  139.9220  143.9060   97.9670 O   0  0  0  0  0  0  0  0  0  0  0  0
  139.4620  143.9210   97.1020 H   0  0  0  0  0  0  0  0  0  0  0  0
  140.4030  144.1920  100.7660 O   0  0  0  0  0  0  0  0  0  0  0  0
  140.7360  143.7100  101.5430 H   0  0  0  0  0  0  0  0  0  0  0  0
  1  7  1  6  0  0  0
  1  2  1  0  0  0  0
  2 21  1  6  0  0  0
  2  3  1  0  0  0  0
  4 28  1  1  0  0  0
  4  3  1  0  0  0  0
  5 26  1  6  0  0  0
  5  4  1  0  0  0  0
  6 24  1  1  0  0  0
  6  5  1  0  0  0  0
  6  1  1  0  0  0  0
  8  9  1  0  0  0  0
  8  7  1  1  0  0  0
  9 10  1  0  0  0  0
 10 11  1  6  0  0  0
 12 15  1  1  0  0  0
 12 10  1  0  0  0  0
 13 17  1  1  0  0  0
 13 12  1  0  0  0  0
 13 14  1  0  0  0  0
 14 19  1  6  0  0  0
 14  8  1  0  0  0  0
 16 15  1  0  0  0  0
 17 18  1  0  0  0  0
 20 19  1  0  0  0  0
 22 21  1  0  0  0  0
 23 22  1  0  0  0  0
 25 24  1  0  0  0  0
 27 26  1  0  0  0  0
 28 29  1  0  0  0  0
M  END
>  <MODEL>
8

>  <REMARK>
 VINA RESULT:      -5.7     11.405     13.905
  10 active torsions:
  status: ('A' for Active; 'I' for Inactive)
    1  A    between atoms: C_4  and  O_5 
    2  A    between atoms: O_5  and  C_6 
    3  A    between atoms: C_7  and  C_8 
    4  A    between atoms: C_8  and  O_9 
    5  A    between atoms: C_11  and  O_12 
    6  A    between atoms: C_13  and  O_14 
    7  A    between atoms: C_15  and  O_16 
    8  A    between atoms: C_17  and  O_18 
    9  A    between atoms: C_19  and  O_20 
   10  A    between atoms: C_21  and  O_22 

>  <TORSDO>
F 10

$$$$
../results/processed/lowest_conf/7XP5/docked/s4c.pdbqt
 OpenBabel07252416063D

 29 30  0  0  1  0  0  0  0  0999 V2000
  137.6850  142.3970   98.1650 C   0  0  1  0  0  3  0  0  0  0  0  0
  139.0820  142.8290   97.6720 C   0  0  2  0  0  3  0  0  0  0  0  0
  140.0770  142.7200   98.7170 O   0  0  0  0  0  0  0  0  0  0  0  0
  139.7530  143.4340   99.8990 C   0  0  1  0  0  3  0  0  0  0  0  0
  138.4130  142.9770  100.4980 C   0  0  2  0  0  3  0  0  0  0  0  0
  137.3000  143.1280   99.4630 C   0  0  1  0  0  3  0  0  0  0  0  0
  136.6600  142.6120   97.1870 O   0  0  0  0  0  0  0  0  0  0  0  0
  135.3520  142.2340   97.6250 C   0  0  2  0  0  3  0  0  0  0  0  0
  135.0020  140.9140   97.2080 O   0  0  0  0  0  0  0  0  0  0  0  0
  134.3190  140.8780   95.9500 C   0  0  1  0  0  3  0  0  0  0  0  0
  134.1800  139.4210   95.5280 C   0  0  0  0  0  1  0  0  0  0  0  0
  132.9410  141.5630   96.0550 C   0  0  1  0  0  3  0  0  0  0  0  0
  132.9640  142.7130   97.0750 C   0  0  1  0  0  3  0  0  0  0  0  0
  134.3630  143.3190   97.1390 C   0  0  1  0  0  3  0  0  0  0  0  0
  132.5730  142.0680   94.7650 O   0  0  0  0  0  0  0  0  0  0  0  0
  131.6890  141.6800   94.5880 H   0  0  0  0  0  0  0  0  0  0  0  0
  131.9970  143.7080   96.7020 O   0  0  0  0  0  0  0  0  0  0  0  0
  131.6100  144.0090   97.5520 H   0  0  0  0  0  0  0  0  0  0  0  0
  134.3530  144.4550   98.0200 O   0  0  0  0  0  0  0  0  0  0  0  0
  135.2230  144.8860   97.9020 H   0  0  0  0  0  0  0  0  0  0  0  0
  139.1440  144.2110   97.0020 C   0  0  0  0  0  2  0  0  0  0  0  0
  140.4850  144.4700   96.5650 O   0  0  0  0  0  0  0  0  0  0  0  0
  140.7480  145.3210   96.9610 H   0  0  0  0  0  0  0  0  0  0  0  0
  137.0610  144.5260   99.2340 O   0  0  0  0  0  0  0  0  0  0  0  0
  136.1470  144.5730   98.8840 H   0  0  0  0  0  0  0  0  0  0  0  0
  138.0850  143.7550  101.6600 O   0  0  0  0  0  0  0  0  0  0  0  0
  138.9440  143.9240  102.1000 H   0  0  0  0  0  0  0  0  0  0  0  0
  140.7610  143.1600  100.8670 O   0  0  0  0  0  0  0  0  0  0  0  0
  140.2730  142.9220  101.6750 H   0  0  0  0  0  0  0  0  0  0  0  0
  1  7  1  6  0  0  0
  1  6  1  0  0  0  0
  2 21  1  1  0  0  0
  2  1  1  0  0  0  0
  2  3  1  0  0  0  0
  3  4  1  0  0  0  0
  4  5  1  0  0  0  0
  4 28  1  1  0  0  0
  5 26  1  1  0  0  0
  6 24  1  6  0  0  0
  6  5  1  0  0  0  0
  8  7  1  6  0  0  0
  9  8  1  0  0  0  0
 10 11  1  1  0  0  0
 10 12  1  0  0  0  0
 10  9  1  0  0  0  0
 12 15  1  6  0  0  0
 12 13  1  0  0  0  0
 13 17  1  6  0  0  0
 13 14  1  0  0  0  0
 14  8  1  0  0  0  0
 14 19  1  1  0  0  0
 16 15  1  0  0  0  0
 17 18  1  0  0  0  0
 20 19  1  0  0  0  0
 22 23  1  0  0  0  0
 22 21  1  0  0  0  0
 25 24  1  0  0  0  0
 26 27  1  0  0  0  0
 28 29  1  0  0  0  0
M  END
>  <MODEL>
9

>  <REMARK>
 VINA RESULT:      -5.5     10.979     13.635
  10 active torsions:
  status: ('A' for Active; 'I' for Inactive)
    1  A    between atoms: C_4  and  O_5 
    2  A    between atoms: O_5  and  C_6 
    3  A    between atoms: C_7  and  C_8 
    4  A    between atoms: C_8  and  O_9 
    5  A    between atoms: C_11  and  O_12 
    6  A    between atoms: C_13  and  O_14 
    7  A    between atoms: C_15  and  O_16 
    8  A    between atoms: C_17  and  O_18 
    9  A    between atoms: C_19  and  O_20 
   10  A    between atoms: C_21  and  O_22 

>  <TORSDO>
F 10

$$$$
