MODEL 1
REMARK VINA RESULT:      -5.3      0.000      0.000
REMARK  4 active torsions:
REMARK  status: ('A' for Active; 'I' for Inactive)
REMARK    1  A    between atoms: O_1  and  C_2 
REMARK    2  A    between atoms: C_2  and  C_3 
REMARK    3  A    between atoms: C_5  and  O_9 
REMARK    4  A    between atoms: C_7  and  O_8 
ROOT
ATOM      1  C   UNL d   1     144.643 132.374 101.556  0.00  0.00     0.177 C 
ATOM      2  O   UNL d   1     145.070 132.328 102.939  0.00  0.00    -0.351 OA
ATOM      3  C   UNL d   1     144.905 133.634 103.489  0.00  0.00     0.260 C 
ATOM      4  C   UNL d   1     143.988 134.396 102.556  0.00  0.00     0.095 C 
ATOM      5  C   UNL d   1     144.406 133.842 101.213  0.00  0.00     0.153 C 
ENDROOT
BRANCH   1   6
ATOM      6  C   UNL d   1     145.712 131.725 100.683  0.00  0.00     0.198 C 
BRANCH   6   7
ATOM      7  O   UNL d   1     145.259 130.446 100.234  0.00  0.00    -0.398 OA
ATOM      8  H   UNL d   1     145.088 130.551  99.278  0.00  0.00     0.209 HD
ENDBRANCH   6   7
ENDBRANCH   1   6
BRANCH   5   9
ATOM      9  O   UNL d   1     143.397 134.012 100.233  0.00  0.00    -0.393 OA
ATOM     10  H   UNL d   1     142.803 134.719 100.543  0.00  0.00     0.210 HD
ENDBRANCH   5   9
BRANCH   3  11
ATOM     11  O   UNL d   1     146.172 134.263 103.514  0.00  0.00    -0.371 OA
ATOM     12  H   UNL d   1     146.587 133.959 104.341  0.00  0.00     0.212 HD
ENDBRANCH   3  11
TORSDOF 4
ENDMDL
MODEL 2
REMARK VINA RESULT:      -5.2      1.503      3.458
REMARK  4 active torsions:
REMARK  status: ('A' for Active; 'I' for Inactive)
REMARK    1  A    between atoms: O_1  and  C_2 
REMARK    2  A    between atoms: C_2  and  C_3 
REMARK    3  A    between atoms: C_5  and  O_9 
REMARK    4  A    between atoms: C_7  and  O_8 
ROOT
ATOM      1  C   UNL d   1     145.416 133.635 102.474  0.00  0.00     0.177 C 
ATOM      2  O   UNL d   1     145.138 132.216 102.394  0.00  0.00    -0.351 OA
ATOM      3  C   UNL d   1     145.667 131.738 101.159  0.00  0.00     0.260 C 
ATOM      4  C   UNL d   1     146.636 132.786 100.655  0.00  0.00     0.095 C 
ATOM      5  C   UNL d   1     145.959 134.058 101.113  0.00  0.00     0.153 C 
ENDROOT
BRANCH   1   6
ATOM      6  C   UNL d   1     144.137 134.373 102.858  0.00  0.00     0.198 C 
BRANCH   6   7
ATOM      7  O   UNL d   1     143.943 135.490 101.988  0.00  0.00    -0.398 OA
ATOM      8  H   UNL d   1     144.766 135.560 101.466  0.00  0.00     0.209 HD
ENDBRANCH   6   7
ENDBRANCH   1   6
BRANCH   5   9
ATOM      9  O   UNL d   1     146.871 135.139 101.206  0.00  0.00    -0.393 OA
ATOM     10  H   UNL d   1     146.366 135.926 101.477  0.00  0.00     0.210 HD
ENDBRANCH   5   9
BRANCH   3  11
ATOM     11  O   UNL d   1     144.598 131.613 100.242  0.00  0.00    -0.371 OA
ATOM     12  H   UNL d   1     145.023 131.491  99.375  0.00  0.00     0.212 HD
ENDBRANCH   3  11
TORSDOF 4
ENDMDL
MODEL 3
REMARK VINA RESULT:      -5.2      1.658      3.165
REMARK  4 active torsions:
REMARK  status: ('A' for Active; 'I' for Inactive)
REMARK    1  A    between atoms: O_1  and  C_2 
REMARK    2  A    between atoms: C_2  and  C_3 
REMARK    3  A    between atoms: C_5  and  O_9 
REMARK    4  A    between atoms: C_7  and  O_8 
ROOT
ATOM      1  C   UNL d   1     145.521 134.135 101.456  0.00  0.00     0.177 C 
ATOM      2  O   UNL d   1     145.367 132.939 100.653  0.00  0.00    -0.351 OA
ATOM      3  C   UNL d   1     144.711 131.958 101.455  0.00  0.00     0.260 C 
ATOM      4  C   UNL d   1     144.091 132.687 102.628  0.00  0.00     0.095 C 
ATOM      5  C   UNL d   1     145.116 133.769 102.880  0.00  0.00     0.153 C 
ENDROOT
BRANCH   1   6
ATOM      6  C   UNL d   1     146.963 134.621 101.354  0.00  0.00     0.198 C 
BRANCH   6   7
ATOM      7  O   UNL d   1     147.472 134.903 102.660  0.00  0.00    -0.398 OA
ATOM      8  H   UNL d   1     146.686 134.971 103.236  0.00  0.00     0.209 HD
ENDBRANCH   6   7
ENDBRANCH   1   6
BRANCH   5   9
ATOM      9  O   UNL d   1     144.564 134.868 103.585  0.00  0.00    -0.393 OA
ATOM     10  H   UNL d   1     143.918 134.513 104.220  0.00  0.00     0.210 HD
ENDBRANCH   5   9
BRANCH   3  11
ATOM     11  O   UNL d   1     145.689 131.055 101.932  0.00  0.00    -0.371 OA
ATOM     12  H   UNL d   1     145.269 130.604 102.686  0.00  0.00     0.212 HD
ENDBRANCH   3  11
TORSDOF 4
ENDMDL
MODEL 4
REMARK VINA RESULT:      -5.2      1.733      2.422
REMARK  4 active torsions:
REMARK  status: ('A' for Active; 'I' for Inactive)
REMARK    1  A    between atoms: O_1  and  C_2 
REMARK    2  A    between atoms: C_2  and  C_3 
REMARK    3  A    between atoms: C_5  and  O_9 
REMARK    4  A    between atoms: C_7  and  O_8 
ROOT
ATOM      1  C   UNL d   1     146.062 133.094 101.609  0.00  0.00     0.177 C 
ATOM      2  O   UNL d   1     146.005 133.743 102.902  0.00  0.00    -0.351 OA
ATOM      3  C   UNL d   1     144.635 133.812 103.294  0.00  0.00     0.260 C 
ATOM      4  C   UNL d   1     143.874 132.836 102.422  0.00  0.00     0.095 C 
ATOM      5  C   UNL d   1     144.625 132.959 101.116  0.00  0.00     0.153 C 
ENDROOT
BRANCH   1   6
ATOM      6  C   UNL d   1     146.935 133.925 100.673  0.00  0.00     0.198 C 
BRANCH   6   7
ATOM      7  O   UNL d   1     146.839 135.307 101.024  0.00  0.00    -0.398 OA
ATOM      8  H   UNL d   1     146.269 135.710 100.341  0.00  0.00     0.209 HD
ENDBRANCH   6   7
ENDBRANCH   1   6
BRANCH   5   9
ATOM      9  O   UNL d   1     144.441 131.821 100.291  0.00  0.00    -0.393 OA
ATOM     10  H   UNL d   1     144.966 131.958  99.482  0.00  0.00     0.210 HD
ENDBRANCH   5   9
BRANCH   3  11
ATOM     11  O   UNL d   1     144.171 135.124 103.038  0.00  0.00    -0.371 OA
ATOM     12  H   UNL d   1     143.571 135.035 102.277  0.00  0.00     0.212 HD
ENDBRANCH   3  11
TORSDOF 4
ENDMDL
MODEL 5
REMARK VINA RESULT:      -5.1      2.106      3.770
REMARK  4 active torsions:
REMARK  status: ('A' for Active; 'I' for Inactive)
REMARK    1  A    between atoms: O_1  and  C_2 
REMARK    2  A    between atoms: C_2  and  C_3 
REMARK    3  A    between atoms: C_5  and  O_9 
REMARK    4  A    between atoms: C_7  and  O_8 
ROOT
ATOM      1  C   UNL d   1     143.152 134.272 101.176  0.00  0.00     0.177 C 
ATOM      2  O   UNL d   1     143.828 133.543 100.123  0.00  0.00    -0.351 OA
ATOM      3  C   UNL d   1     145.229 133.599 100.385  0.00  0.00     0.260 C 
ATOM      4  C   UNL d   1     145.394 134.021 101.830  0.00  0.00     0.095 C 
ATOM      5  C   UNL d   1     144.232 134.973 101.993  0.00  0.00     0.153 C 
ENDROOT
BRANCH   1   6
ATOM      6  C   UNL d   1     142.157 135.243 100.549  0.00  0.00     0.198 C 
BRANCH   6   7
ATOM      7  O   UNL d   1     142.667 136.576 100.627  0.00  0.00    -0.398 OA
ATOM      8  H   UNL d   1     142.879 136.827  99.707  0.00  0.00     0.209 HD
ENDBRANCH   6   7
ENDBRANCH   1   6
BRANCH   5   9
ATOM      9  O   UNL d   1     143.864 135.130 103.353  0.00  0.00    -0.393 OA
ATOM     10  H   UNL d   1     144.651 135.440 103.836  0.00  0.00     0.210 HD
ENDBRANCH   5   9
BRANCH   3  11
ATOM     11  O   UNL d   1     145.793 134.586  99.544  0.00  0.00    -0.371 OA
ATOM     12  H   UNL d   1     146.196 134.091  98.809  0.00  0.00     0.212 HD
ENDBRANCH   3  11
TORSDOF 4
ENDMDL
MODEL 6
REMARK VINA RESULT:      -4.8      1.810      2.342
REMARK  4 active torsions:
REMARK  status: ('A' for Active; 'I' for Inactive)
REMARK    1  A    between atoms: O_1  and  C_2 
REMARK    2  A    between atoms: C_2  and  C_3 
REMARK    3  A    between atoms: C_5  and  O_9 
REMARK    4  A    between atoms: C_7  and  O_8 
ROOT
ATOM      1  C   UNL d   1     145.547 132.991 100.478  0.00  0.00     0.177 C 
ATOM      2  O   UNL d   1     144.561 132.055 100.976  0.00  0.00    -0.351 OA
ATOM      3  C   UNL d   1     144.356 132.334 102.361  0.00  0.00     0.260 C 
ATOM      4  C   UNL d   1     144.920 133.714 102.623  0.00  0.00     0.095 C 
ATOM      5  C   UNL d   1     146.108 133.730 101.688  0.00  0.00     0.153 C 
ENDROOT
BRANCH   1   6
ATOM      6  C   UNL d   1     146.615 132.224  99.704  0.00  0.00     0.198 C 
BRANCH   6   7
ATOM      7  O   UNL d   1     147.906 132.518 100.241  0.00  0.00    -0.398 OA
ATOM      8  H   UNL d   1     147.797 133.349 100.742  0.00  0.00     0.209 HD
ENDBRANCH   6   7
ENDBRANCH   1   6
BRANCH   5   9
ATOM      9  O   UNL d   1     146.516 135.051 101.373  0.00  0.00    -0.393 OA
ATOM     10  H   UNL d   1     147.378 134.993 100.925  0.00  0.00     0.210 HD
ENDBRANCH   5   9
BRANCH   3  11
ATOM     11  O   UNL d   1     145.084 131.383 103.112  0.00  0.00    -0.371 OA
ATOM     12  H   UNL d   1     144.478 131.107 103.823  0.00  0.00     0.212 HD
ENDBRANCH   3  11
TORSDOF 4
ENDMDL
MODEL 7
REMARK VINA RESULT:      -4.8      1.547      3.542
REMARK  4 active torsions:
REMARK  status: ('A' for Active; 'I' for Inactive)
REMARK    1  A    between atoms: O_1  and  C_2 
REMARK    2  A    between atoms: C_2  and  C_3 
REMARK    3  A    between atoms: C_5  and  O_9 
REMARK    4  A    between atoms: C_7  and  O_8 
ROOT
ATOM      1  C   UNL d   1     143.917 133.326 101.435  0.00  0.00     0.177 C 
ATOM      2  O   UNL d   1     144.246 133.794 100.105  0.00  0.00    -0.351 OA
ATOM      3  C   UNL d   1     145.613 133.470  99.855  0.00  0.00     0.260 C 
ATOM      4  C   UNL d   1     146.018 132.433 100.881  0.00  0.00     0.095 C 
ATOM      5  C   UNL d   1     145.224 132.884 102.086  0.00  0.00     0.153 C 
ENDROOT
BRANCH   1   6
ATOM      6  C   UNL d   1     143.222 134.447 102.200  0.00  0.00     0.198 C 
BRANCH   6   7
ATOM      7  O   UNL d   1     144.044 134.872 103.289  0.00  0.00    -0.398 OA
ATOM      8  H   UNL d   1     144.855 135.231 102.879  0.00  0.00     0.209 HD
ENDBRANCH   6   7
ENDBRANCH   1   6
BRANCH   5   9
ATOM      9  O   UNL d   1     145.035 131.834 103.019  0.00  0.00    -0.393 OA
ATOM     10  H   UNL d   1     145.223 130.996 102.559  0.00  0.00     0.210 HD
ENDBRANCH   5   9
BRANCH   3  11
ATOM     11  O   UNL d   1     146.383 134.641 100.046  0.00  0.00    -0.371 OA
ATOM     12  H   UNL d   1     147.036 134.632  99.325  0.00  0.00     0.212 HD
ENDBRANCH   3  11
TORSDOF 4
ENDMDL
MODEL 8
REMARK VINA RESULT:      -4.6     11.773     13.048
REMARK  4 active torsions:
REMARK  status: ('A' for Active; 'I' for Inactive)
REMARK    1  A    between atoms: O_1  and  C_2 
REMARK    2  A    between atoms: C_2  and  C_3 
REMARK    3  A    between atoms: C_5  and  O_9 
REMARK    4  A    between atoms: C_7  and  O_8 
ROOT
ATOM      1  C   UNL d   1     138.995 144.608  98.606  0.00  0.00     0.177 C 
ATOM      2  O   UNL d   1     137.831 143.796  98.314  0.00  0.00    -0.351 OA
ATOM      3  C   UNL d   1     137.788 142.738  99.270  0.00  0.00     0.260 C 
ATOM      4  C   UNL d   1     138.703 143.132 100.410  0.00  0.00     0.095 C 
ATOM      5  C   UNL d   1     139.797 143.866  99.670  0.00  0.00     0.153 C 
ENDROOT
BRANCH   1   6
ATOM      6  C   UNL d   1     139.781 144.834  97.319  0.00  0.00     0.198 C 
BRANCH   6   7
ATOM      7  O   UNL d   1     140.602 145.997  97.451  0.00  0.00    -0.398 OA
ATOM      8  H   UNL d   1     141.041 146.106  96.585  0.00  0.00     0.209 HD
ENDBRANCH   6   7
ENDBRANCH   1   6
BRANCH   5   9
ATOM      9  O   UNL d   1     140.512 144.747 100.520  0.00  0.00    -0.393 OA
ATOM     10  H   UNL d   1     139.902 145.458 100.784  0.00  0.00     0.210 HD
ENDBRANCH   5   9
BRANCH   3  11
ATOM     11  O   UNL d   1     138.289 141.568  98.653  0.00  0.00    -0.371 OA
ATOM     12  H   UNL d   1     138.852 141.889  97.926  0.00  0.00     0.212 HD
ENDBRANCH   3  11
TORSDOF 4
ENDMDL
MODEL 9
REMARK VINA RESULT:      -4.6     11.294     12.247
REMARK  4 active torsions:
REMARK  status: ('A' for Active; 'I' for Inactive)
REMARK    1  A    between atoms: O_1  and  C_2 
REMARK    2  A    between atoms: C_2  and  C_3 
REMARK    3  A    between atoms: C_5  and  O_9 
REMARK    4  A    between atoms: C_7  and  O_8 
ROOT
ATOM      1  C   UNL d   1     138.967 143.742 100.488  0.00  0.00     0.177 C 
ATOM      2  O   UNL d   1     138.467 143.480  99.154  0.00  0.00    -0.351 OA
ATOM      3  C   UNL d   1     137.344 142.607  99.275  0.00  0.00     0.260 C 
ATOM      4  C   UNL d   1     136.898 142.655 100.721  0.00  0.00     0.095 C 
ATOM      5  C   UNL d   1     138.222 142.806 101.434  0.00  0.00     0.153 C 
ENDROOT
BRANCH   1   6
ATOM      6  C   UNL d   1     140.477 143.526 100.505  0.00  0.00     0.198 C 
BRANCH   6   7
ATOM      7  O   UNL d   1     140.877 143.015 101.779  0.00  0.00    -0.398 OA
ATOM      8  H   UNL d   1     141.023 142.059 101.642  0.00  0.00     0.209 HD
ENDBRANCH   6   7
ENDBRANCH   1   6
BRANCH   5   9
ATOM      9  O   UNL d   1     138.065 143.358 102.730  0.00  0.00    -0.393 OA
ATOM     10  H   UNL d   1     137.435 144.097 102.659  0.00  0.00     0.210 HD
ENDBRANCH   5   9
BRANCH   3  11
ATOM     11  O   UNL d   1     137.772 141.296  98.962  0.00  0.00    -0.371 OA
ATOM     12  H   UNL d   1     138.280 141.387  98.137  0.00  0.00     0.212 HD
ENDBRANCH   3  11
TORSDOF 4
ENDMDL
