../results/processed/lowest_conf/7XP5/docked/s5.pdbqt
 OpenBabel07252416063D

 12 12  0  0  1  0  0  0  0  0999 V2000
  144.6430  132.3740  101.5560 C   0  0  1  0  0  3  0  0  0  0  0  0
  145.0700  132.3280  102.9390 O   0  0  0  0  0  0  0  0  0  0  0  0
  144.9050  133.6340  103.4890 C   0  0  2  0  0  3  0  0  0  0  0  0
  143.9880  134.3960  102.5560 C   0  0  0  0  0  2  0  0  0  0  0  0
  144.4060  133.8420  101.2130 C   0  0  2  0  0  3  0  0  0  0  0  0
  145.7120  131.7250  100.6830 C   0  0  0  0  0  2  0  0  0  0  0  0
  145.2590  130.4460  100.2340 O   0  0  0  0  0  0  0  0  0  0  0  0
  145.0880  130.5510   99.2780 H   0  0  0  0  0  0  0  0  0  0  0  0
  143.3970  134.0120  100.2330 O   0  0  0  0  0  0  0  0  0  0  0  0
  142.8030  134.7190  100.5430 H   0  0  0  0  0  0  0  0  0  0  0  0
  146.1720  134.2630  103.5140 O   0  0  0  0  0  0  0  0  0  0  0  0
  146.5870  133.9590  104.3410 H   0  0  0  0  0  0  0  0  0  0  0  0
  1  6  1  6  0  0  0
  1  2  1  0  0  0  0
  2  3  1  0  0  0  0
  3 11  1  6  0  0  0
  4  3  1  0  0  0  0
  5  9  1  6  0  0  0
  5  1  1  0  0  0  0
  5  4  1  0  0  0  0
  7  6  1  0  0  0  0
  8  7  1  0  0  0  0
  9 10  1  0  0  0  0
 11 12  1  0  0  0  0
M  END
>  <MODEL>
1

>  <REMARK>
 VINA RESULT:      -5.3      0.000      0.000
  4 active torsions:
  status: ('A' for Active; 'I' for Inactive)
    1  A    between atoms: O_1  and  C_2 
    2  A    between atoms: C_2  and  C_3 
    3  A    between atoms: C_5  and  O_9 
    4  A    between atoms: C_7  and  O_8 

>  <TORSDO>
F 4

$$$$
../results/processed/lowest_conf/7XP5/docked/s5.pdbqt
 OpenBabel07252416063D

 12 12  0  0  1  0  0  0  0  0999 V2000
  145.4160  133.6350  102.4740 C   0  0  1  0  0  3  0  0  0  0  0  0
  145.1380  132.2160  102.3940 O   0  0  0  0  0  0  0  0  0  0  0  0
  145.6670  131.7380  101.1590 C   0  0  2  0  0  3  0  0  0  0  0  0
  146.6360  132.7860  100.6550 C   0  0  0  0  0  2  0  0  0  0  0  0
  145.9590  134.0580  101.1130 C   0  0  2  0  0  3  0  0  0  0  0  0
  144.1370  134.3730  102.8580 C   0  0  0  0  0  2  0  0  0  0  0  0
  143.9430  135.4900  101.9880 O   0  0  0  0  0  0  0  0  0  0  0  0
  144.7660  135.5600  101.4660 H   0  0  0  0  0  0  0  0  0  0  0  0
  146.8710  135.1390  101.2060 O   0  0  0  0  0  0  0  0  0  0  0  0
  146.3660  135.9260  101.4770 H   0  0  0  0  0  0  0  0  0  0  0  0
  144.5980  131.6130  100.2420 O   0  0  0  0  0  0  0  0  0  0  0  0
  145.0230  131.4910   99.3750 H   0  0  0  0  0  0  0  0  0  0  0  0
  1  6  1  6  0  0  0
  2  1  1  0  0  0  0
  3 11  1  6  0  0  0
  3  2  1  0  0  0  0
  4  5  1  0  0  0  0
  4  3  1  0  0  0  0
  5  9  1  1  0  0  0
  5  1  1  0  0  0  0
  7  6  1  0  0  0  0
  8  7  1  0  0  0  0
  9 10  1  0  0  0  0
 12 11  1  0  0  0  0
M  END
>  <MODEL>
2

>  <REMARK>
 VINA RESULT:      -5.2      1.503      3.458
  4 active torsions:
  status: ('A' for Active; 'I' for Inactive)
    1  A    between atoms: O_1  and  C_2 
    2  A    between atoms: C_2  and  C_3 
    3  A    between atoms: C_5  and  O_9 
    4  A    between atoms: C_7  and  O_8 

>  <TORSDO>
F 4

$$$$
../results/processed/lowest_conf/7XP5/docked/s5.pdbqt
 OpenBabel07252416063D

 12 12  0  0  1  0  0  0  0  0999 V2000
  145.5210  134.1350  101.4560 C   0  0  1  0  0  3  0  0  0  0  0  0
  145.3670  132.9390  100.6530 O   0  0  0  0  0  0  0  0  0  0  0  0
  144.7110  131.9580  101.4550 C   0  0  2  0  0  3  0  0  0  0  0  0
  144.0910  132.6870  102.6280 C   0  0  0  0  0  2  0  0  0  0  0  0
  145.1160  133.7690  102.8800 C   0  0  2  0  0  3  0  0  0  0  0  0
  146.9630  134.6210  101.3540 C   0  0  0  0  0  2  0  0  0  0  0  0
  147.4720  134.9030  102.6600 O   0  0  0  0  0  0  0  0  0  0  0  0
  146.6860  134.9710  103.2360 H   0  0  0  0  0  0  0  0  0  0  0  0
  144.5640  134.8680  103.5850 O   0  0  0  0  0  0  0  0  0  0  0  0
  143.9180  134.5130  104.2200 H   0  0  0  0  0  0  0  0  0  0  0  0
  145.6890  131.0550  101.9320 O   0  0  0  0  0  0  0  0  0  0  0  0
  145.2690  130.6040  102.6860 H   0  0  0  0  0  0  0  0  0  0  0  0
  1  6  1  1  0  0  0
  1  5  1  0  0  0  0
  2  3  1  0  0  0  0
  2  1  1  0  0  0  0
  3 11  1  1  0  0  0
  3  4  1  0  0  0  0
  4  5  1  0  0  0  0
  5  9  1  6  0  0  0
  6  7  1  0  0  0  0
  7  8  1  0  0  0  0
  9 10  1  0  0  0  0
 11 12  1  0  0  0  0
M  END
>  <MODEL>
3

>  <REMARK>
 VINA RESULT:      -5.2      1.658      3.165
  4 active torsions:
  status: ('A' for Active; 'I' for Inactive)
    1  A    between atoms: O_1  and  C_2 
    2  A    between atoms: C_2  and  C_3 
    3  A    between atoms: C_5  and  O_9 
    4  A    between atoms: C_7  and  O_8 

>  <TORSDO>
F 4

$$$$
../results/processed/lowest_conf/7XP5/docked/s5.pdbqt
 OpenBabel07252416063D

 12 12  0  0  1  0  0  0  0  0999 V2000
  146.0620  133.0940  101.6090 C   0  0  1  0  0  3  0  0  0  0  0  0
  146.0050  133.7430  102.9020 O   0  0  0  0  0  0  0  0  0  0  0  0
  144.6350  133.8120  103.2940 C   0  0  2  0  0  3  0  0  0  0  0  0
  143.8740  132.8360  102.4220 C   0  0  0  0  0  2  0  0  0  0  0  0
  144.6250  132.9590  101.1160 C   0  0  2  0  0  3  0  0  0  0  0  0
  146.9350  133.9250  100.6730 C   0  0  0  0  0  2  0  0  0  0  0  0
  146.8390  135.3070  101.0240 O   0  0  0  0  0  0  0  0  0  0  0  0
  146.2690  135.7100  100.3410 H   0  0  0  0  0  0  0  0  0  0  0  0
  144.4410  131.8210  100.2910 O   0  0  0  0  0  0  0  0  0  0  0  0
  144.9660  131.9580   99.4820 H   0  0  0  0  0  0  0  0  0  0  0  0
  144.1710  135.1240  103.0380 O   0  0  0  0  0  0  0  0  0  0  0  0
  143.5710  135.0350  102.2770 H   0  0  0  0  0  0  0  0  0  0  0  0
  1  6  1  6  0  0  0
  1  2  1  0  0  0  0
  2  3  1  0  0  0  0
  3 11  1  6  0  0  0
  4  3  1  0  0  0  0
  5  9  1  6  0  0  0
  5  1  1  0  0  0  0
  5  4  1  0  0  0  0
  6  7  1  0  0  0  0
  8  7  1  0  0  0  0
 10  9  1  0  0  0  0
 12 11  1  0  0  0  0
M  END
>  <MODEL>
4

>  <REMARK>
 VINA RESULT:      -5.2      1.733      2.422
  4 active torsions:
  status: ('A' for Active; 'I' for Inactive)
    1  A    between atoms: O_1  and  C_2 
    2  A    between atoms: C_2  and  C_3 
    3  A    between atoms: C_5  and  O_9 
    4  A    between atoms: C_7  and  O_8 

>  <TORSDO>
F 4

$$$$
../results/processed/lowest_conf/7XP5/docked/s5.pdbqt
 OpenBabel07252416063D

 12 12  0  0  1  0  0  0  0  0999 V2000
  143.1520  134.2720  101.1760 C   0  0  1  0  0  3  0  0  0  0  0  0
  143.8280  133.5430  100.1230 O   0  0  0  0  0  0  0  0  0  0  0  0
  145.2290  133.5990  100.3850 C   0  0  2  0  0  3  0  0  0  0  0  0
  145.3940  134.0210  101.8300 C   0  0  0  0  0  2  0  0  0  0  0  0
  144.2320  134.9730  101.9930 C   0  0  2  0  0  3  0  0  0  0  0  0
  142.1570  135.2430  100.5490 C   0  0  0  0  0  2  0  0  0  0  0  0
  142.6670  136.5760  100.6270 O   0  0  0  0  0  0  0  0  0  0  0  0
  142.8790  136.8270   99.7070 H   0  0  0  0  0  0  0  0  0  0  0  0
  143.8640  135.1300  103.3530 O   0  0  0  0  0  0  0  0  0  0  0  0
  144.6510  135.4400  103.8360 H   0  0  0  0  0  0  0  0  0  0  0  0
  145.7930  134.5860   99.5440 O   0  0  0  0  0  0  0  0  0  0  0  0
  146.1960  134.0910   98.8090 H   0  0  0  0  0  0  0  0  0  0  0  0
  1  6  1  6  0  0  0
  1  5  1  0  0  0  0
  2  3  1  0  0  0  0
  2  1  1  0  0  0  0
  3 11  1  6  0  0  0
  3  4  1  0  0  0  0
  4  5  1  0  0  0  0
  5  9  1  1  0  0  0
  6  7  1  0  0  0  0
  8  7  1  0  0  0  0
  9 10  1  0  0  0  0
 12 11  1  0  0  0  0
M  END
>  <MODEL>
5

>  <REMARK>
 VINA RESULT:      -5.1      2.106      3.770
  4 active torsions:
  status: ('A' for Active; 'I' for Inactive)
    1  A    between atoms: O_1  and  C_2 
    2  A    between atoms: C_2  and  C_3 
    3  A    between atoms: C_5  and  O_9 
    4  A    between atoms: C_7  and  O_8 

>  <TORSDO>
F 4

$$$$
../results/processed/lowest_conf/7XP5/docked/s5.pdbqt
 OpenBabel07252416063D

 12 12  0  0  1  0  0  0  0  0999 V2000
  145.5470  132.9910  100.4780 C   0  0  1  0  0  3  0  0  0  0  0  0
  144.5610  132.0550  100.9760 O   0  0  0  0  0  0  0  0  0  0  0  0
  144.3560  132.3340  102.3610 C   0  0  2  0  0  3  0  0  0  0  0  0
  144.9200  133.7140  102.6230 C   0  0  0  0  0  2  0  0  0  0  0  0
  146.1080  133.7300  101.6880 C   0  0  2  0  0  3  0  0  0  0  0  0
  146.6150  132.2240   99.7040 C   0  0  0  0  0  2  0  0  0  0  0  0
  147.9060  132.5180  100.2410 O   0  0  0  0  0  0  0  0  0  0  0  0
  147.7970  133.3490  100.7420 H   0  0  0  0  0  0  0  0  0  0  0  0
  146.5160  135.0510  101.3730 O   0  0  0  0  0  0  0  0  0  0  0  0
  147.3780  134.9930  100.9250 H   0  0  0  0  0  0  0  0  0  0  0  0
  145.0840  131.3830  103.1120 O   0  0  0  0  0  0  0  0  0  0  0  0
  144.4780  131.1070  103.8230 H   0  0  0  0  0  0  0  0  0  0  0  0
  1  6  1  1  0  0  0
  1  2  1  0  0  0  0
  1  5  1  0  0  0  0
  2  3  1  0  0  0  0
  3  4  1  0  0  0  0
  3 11  1  1  0  0  0
  5  9  1  6  0  0  0
  5  4  1  0  0  0  0
  6  7  1  0  0  0  0
  7  8  1  0  0  0  0
 10  9  1  0  0  0  0
 11 12  1  0  0  0  0
M  END
>  <MODEL>
6

>  <REMARK>
 VINA RESULT:      -4.8      1.810      2.342
  4 active torsions:
  status: ('A' for Active; 'I' for Inactive)
    1  A    between atoms: O_1  and  C_2 
    2  A    between atoms: C_2  and  C_3 
    3  A    between atoms: C_5  and  O_9 
    4  A    between atoms: C_7  and  O_8 

>  <TORSDO>
F 4

$$$$
../results/processed/lowest_conf/7XP5/docked/s5.pdbqt
 OpenBabel07252416063D

 12 12  0  0  1  0  0  0  0  0999 V2000
  143.9170  133.3260  101.4350 C   0  0  1  0  0  3  0  0  0  0  0  0
  144.2460  133.7940  100.1050 O   0  0  0  0  0  0  0  0  0  0  0  0
  145.6130  133.4700   99.8550 C   0  0  2  0  0  3  0  0  0  0  0  0
  146.0180  132.4330  100.8810 C   0  0  0  0  0  2  0  0  0  0  0  0
  145.2240  132.8840  102.0860 C   0  0  2  0  0  3  0  0  0  0  0  0
  143.2220  134.4470  102.2000 C   0  0  0  0  0  2  0  0  0  0  0  0
  144.0440  134.8720  103.2890 O   0  0  0  0  0  0  0  0  0  0  0  0
  144.8550  135.2310  102.8790 H   0  0  0  0  0  0  0  0  0  0  0  0
  145.0350  131.8340  103.0190 O   0  0  0  0  0  0  0  0  0  0  0  0
  145.2230  130.9960  102.5590 H   0  0  0  0  0  0  0  0  0  0  0  0
  146.3830  134.6410  100.0460 O   0  0  0  0  0  0  0  0  0  0  0  0
  147.0360  134.6320   99.3250 H   0  0  0  0  0  0  0  0  0  0  0  0
  1  5  1  0  0  0  0
  1  6  1  1  0  0  0
  2  1  1  0  0  0  0
  3 11  1  1  0  0  0
  3  2  1  0  0  0  0
  3  4  1  0  0  0  0
  4  5  1  0  0  0  0
  5  9  1  1  0  0  0
  6  7  1  0  0  0  0
  8  7  1  0  0  0  0
 10  9  1  0  0  0  0
 12 11  1  0  0  0  0
M  END
>  <MODEL>
7

>  <REMARK>
 VINA RESULT:      -4.8      1.547      3.542
  4 active torsions:
  status: ('A' for Active; 'I' for Inactive)
    1  A    between atoms: O_1  and  C_2 
    2  A    between atoms: C_2  and  C_3 
    3  A    between atoms: C_5  and  O_9 
    4  A    between atoms: C_7  and  O_8 

>  <TORSDO>
F 4

$$$$
../results/processed/lowest_conf/7XP5/docked/s5.pdbqt
 OpenBabel07252416063D

 12 12  0  0  1  0  0  0  0  0999 V2000
  138.9950  144.6080   98.6060 C   0  0  1  0  0  3  0  0  0  0  0  0
  137.8310  143.7960   98.3140 O   0  0  0  0  0  0  0  0  0  0  0  0
  137.7880  142.7380   99.2700 C   0  0  2  0  0  3  0  0  0  0  0  0
  138.7030  143.1320  100.4100 C   0  0  0  0  0  2  0  0  0  0  0  0
  139.7970  143.8660   99.6700 C   0  0  2  0  0  3  0  0  0  0  0  0
  139.7810  144.8340   97.3190 C   0  0  0  0  0  2  0  0  0  0  0  0
  140.6020  145.9970   97.4510 O   0  0  0  0  0  0  0  0  0  0  0  0
  141.0410  146.1060   96.5850 H   0  0  0  0  0  0  0  0  0  0  0  0
  140.5120  144.7470  100.5200 O   0  0  0  0  0  0  0  0  0  0  0  0
  139.9020  145.4580  100.7840 H   0  0  0  0  0  0  0  0  0  0  0  0
  138.2890  141.5680   98.6530 O   0  0  0  0  0  0  0  0  0  0  0  0
  138.8520  141.8890   97.9260 H   0  0  0  0  0  0  0  0  0  0  0  0
  1  6  1  6  0  0  0
  1  5  1  0  0  0  0
  2  1  1  0  0  0  0
  2  3  1  0  0  0  0
  3 11  1  6  0  0  0
  3  4  1  0  0  0  0
  5  4  1  0  0  0  0
  5  9  1  1  0  0  0
  6  7  1  0  0  0  0
  8  7  1  0  0  0  0
  9 10  1  0  0  0  0
 12 11  1  0  0  0  0
M  END
>  <MODEL>
8

>  <REMARK>
 VINA RESULT:      -4.6     11.773     13.048
  4 active torsions:
  status: ('A' for Active; 'I' for Inactive)
    1  A    between atoms: O_1  and  C_2 
    2  A    between atoms: C_2  and  C_3 
    3  A    between atoms: C_5  and  O_9 
    4  A    between atoms: C_7  and  O_8 

>  <TORSDO>
F 4

$$$$
../results/processed/lowest_conf/7XP5/docked/s5.pdbqt
 OpenBabel07252416063D

 12 12  0  0  1  0  0  0  0  0999 V2000
  138.9670  143.7420  100.4880 C   0  0  1  0  0  3  0  0  0  0  0  0
  138.4670  143.4800   99.1540 O   0  0  0  0  0  0  0  0  0  0  0  0
  137.3440  142.6070   99.2750 C   0  0  2  0  0  3  0  0  0  0  0  0
  136.8980  142.6550  100.7210 C   0  0  0  0  0  2  0  0  0  0  0  0
  138.2220  142.8060  101.4340 C   0  0  2  0  0  3  0  0  0  0  0  0
  140.4770  143.5260  100.5050 C   0  0  0  0  0  2  0  0  0  0  0  0
  140.8770  143.0150  101.7790 O   0  0  0  0  0  0  0  0  0  0  0  0
  141.0230  142.0590  101.6420 H   0  0  0  0  0  0  0  0  0  0  0  0
  138.0650  143.3580  102.7300 O   0  0  0  0  0  0  0  0  0  0  0  0
  137.4350  144.0970  102.6590 H   0  0  0  0  0  0  0  0  0  0  0  0
  137.7720  141.2960   98.9620 O   0  0  0  0  0  0  0  0  0  0  0  0
  138.2800  141.3870   98.1370 H   0  0  0  0  0  0  0  0  0  0  0  0
  1  6  1  6  0  0  0
  1  5  1  0  0  0  0
  2  3  1  0  0  0  0
  2  1  1  0  0  0  0
  3 11  1  1  0  0  0
  3  4  1  0  0  0  0
  4  5  1  0  0  0  0
  5  9  1  1  0  0  0
  6  7  1  0  0  0  0
  8  7  1  0  0  0  0
 10  9  1  0  0  0  0
 12 11  1  0  0  0  0
M  END
>  <MODEL>
9

>  <REMARK>
 VINA RESULT:      -4.6     11.294     12.247
  4 active torsions:
  status: ('A' for Active; 'I' for Inactive)
    1  A    between atoms: O_1  and  C_2 
    2  A    between atoms: C_2  and  C_3 
    3  A    between atoms: C_5  and  O_9 
    4  A    between atoms: C_7  and  O_8 

>  <TORSDO>
F 4

$$$$
