../results/processed/lowest_conf/7XP5/docked/s5c.pdbqt
 OpenBabel07252416063D

 16 15  0  0  1  0  0  0  0  0999 V2000
  144.3410  134.2470  100.7070 C   0  0  2  0  0  3  0  0  0  0  0  0
  144.3520  132.8210  101.2940 C   0  0  0  0  0  3  0  0  0  0  0  0
  144.0850  132.8370  102.8070 C   0  0  0  0  0  2  0  0  0  0  0  0
  145.2460  133.2170  103.5350 O   0  0  0  0  0  0  0  0  0  0  0  0
  145.3820  134.1670  103.3530 H   0  0  0  0  0  0  0  0  0  0  0  0
  145.6770  132.1030  101.0190 C   0  0  0  0  0  2  0  0  0  0  0  0
  145.8040  130.9670  101.8660 O   0  0  0  0  0  0  0  0  0  0  0  0
  146.2600  130.2800  101.3490 H   0  0  0  0  0  0  0  0  0  0  0  0
  144.4940  135.1970  101.7800 O   0  0  0  0  0  0  0  0  0  0  0  0
  145.4570  135.3920  101.7890 H   0  0  0  0  0  0  0  0  0  0  0  0
  143.0990  134.6550   99.8910 C   0  0  2  0  0  3  0  0  0  0  0  0
  143.5790  135.3760   98.7290 O   0  0  0  0  0  0  0  0  0  0  0  0
  144.5520  135.3930   98.8530 H   0  0  0  0  0  0  0  0  0  0  0  0
  142.1280  135.5820  100.6290 C   0  0  0  0  0  2  0  0  0  0  0  0
  142.5760  136.9320  100.4460 O   0  0  0  0  0  0  0  0  0  0  0  0
  143.4740  136.9750  100.8220 H   0  0  0  0  0  0  0  0  0  0  0  0
  1  2  1  1  0  0  0
  1  9  1  0  0  0  0
  2  3  1  0  0  0  0
  3  4  1  0  0  0  0
  5  4  1  0  0  0  0
  6  2  1  0  0  0  0
  6  7  1  0  0  0  0
  8  7  1  0  0  0  0
  9 10  1  0  0  0  0
 11 14  1  1  0  0  0
 11  1  1  0  0  0  0
 12 13  1  0  0  0  0
 12 11  1  0  0  0  0
 15 14  1  0  0  0  0
 15 16  1  0  0  0  0
M  END
>  <MODEL>
1

>  <REMARK>
 VINA RESULT:      -5.2      0.000      0.000
  10 active torsions:
  status: ('A' for Active; 'I' for Inactive)
    1  A    between atoms: O_1  and  C_2 
    2  A    between atoms: C_2  and  C_3 
    3  A    between atoms: C_3  and  C_4 
    4  A    between atoms: C_3  and  C_6 
    5  A    between atoms: C_4  and  O_5 
    6  A    between atoms: C_6  and  O_7 
    7  A    between atoms: C_6  and  C_8 
    8  A    between atoms: C_8  and  O_9 
    9  A    between atoms: C_8  and  C_10 
   10  A    between atoms: C_10  and  O_11 

>  <TORSDO>
F 10

$$$$
../results/processed/lowest_conf/7XP5/docked/s5c.pdbqt
 OpenBabel07252416063D

 16 15  0  0  1  0  0  0  0  0999 V2000
  144.6020  134.2910  100.3710 C   0  0  2  0  0  3  0  0  0  0  0  0
  143.2060  134.1100  101.0030 C   0  0  0  0  0  3  0  0  0  0  0  0
  142.2160  135.1640  100.4850 C   0  0  0  0  0  2  0  0  0  0  0  0
  142.7410  136.4790  100.6210 O   0  0  0  0  0  0  0  0  0  0  0  0
  143.3510  136.6070   99.8680 H   0  0  0  0  0  0  0  0  0  0  0  0
  143.2620  134.1720  102.5320 C   0  0  0  0  0  2  0  0  0  0  0  0
  144.1540  135.1980  102.9490 O   0  0  0  0  0  0  0  0  0  0  0  0
  143.7340  135.6480  103.7030 H   0  0  0  0  0  0  0  0  0  0  0  0
  144.4480  134.8180   99.0380 O   0  0  0  0  0  0  0  0  0  0  0  0
  143.8000  134.2110   98.6160 H   0  0  0  0  0  0  0  0  0  0  0  0
  145.4940  133.0380  100.2820 C   0  0  2  0  0  3  0  0  0  0  0  0
  145.8060  132.8440   98.8790 O   0  0  0  0  0  0  0  0  0  0  0  0
  145.1530  132.1720   98.5880 H   0  0  0  0  0  0  0  0  0  0  0  0
  144.8330  131.7480  100.7800 C   0  0  0  0  0  2  0  0  0  0  0  0
  145.6350  131.2200  101.8450 O   0  0  0  0  0  0  0  0  0  0  0  0
  145.3530  130.2960  101.9670 H   0  0  0  0  0  0  0  0  0  0  0  0
  1  9  1  6  0  0  0
  1  2  1  0  0  0  0
  2  6  1  0  0  0  0
  3  4  1  0  0  0  0
  3  2  1  0  0  0  0
  5  4  1  0  0  0  0
  6  7  1  0  0  0  0
  7  8  1  0  0  0  0
 10  9  1  0  0  0  0
 11  1  1  0  0  0  0
 11 14  1  6  0  0  0
 12 11  1  0  0  0  0
 13 12  1  0  0  0  0
 14 15  1  0  0  0  0
 15 16  1  0  0  0  0
M  END
>  <MODEL>
2

>  <REMARK>
 VINA RESULT:      -5.0      1.383      3.939
  10 active torsions:
  status: ('A' for Active; 'I' for Inactive)
    1  A    between atoms: O_1  and  C_2 
    2  A    between atoms: C_2  and  C_3 
    3  A    between atoms: C_3  and  C_4 
    4  A    between atoms: C_3  and  C_6 
    5  A    between atoms: C_4  and  O_5 
    6  A    between atoms: C_6  and  O_7 
    7  A    between atoms: C_6  and  C_8 
    8  A    between atoms: C_8  and  O_9 
    9  A    between atoms: C_8  and  C_10 
   10  A    between atoms: C_10  and  O_11 

>  <TORSDO>
F 10

$$$$
../results/processed/lowest_conf/7XP5/docked/s5c.pdbqt
 OpenBabel07252416063D

 16 15  0  0  1  0  0  0  0  0999 V2000
  144.4930  132.1510  101.7970 C   0  0  2  0  0  3  0  0  0  0  0  0
  144.5950  133.6590  102.1030 C   0  0  0  0  0  3  0  0  0  0  0  0
  144.9690  133.9080  103.5720 C   0  0  0  0  0  2  0  0  0  0  0  0
  144.4410  135.1430  104.0390 O   0  0  0  0  0  0  0  0  0  0  0  0
  145.0140  135.8410  103.6680 H   0  0  0  0  0  0  0  0  0  0  0  0
  143.2910  134.3950  101.7770 C   0  0  0  0  0  2  0  0  0  0  0  0
  143.5700  135.7290  101.3700 O   0  0  0  0  0  0  0  0  0  0  0  0
  144.2060  136.0920  102.0120 H   0  0  0  0  0  0  0  0  0  0  0  0
  145.1610  131.4150  102.8410 O   0  0  0  0  0  0  0  0  0  0  0  0
  145.2010  132.0500  103.5900 H   0  0  0  0  0  0  0  0  0  0  0  0
  145.0630  131.6740  100.4470 C   0  0  2  0  0  3  0  0  0  0  0  0
  145.6430  130.3650  100.6750 O   0  0  0  0  0  0  0  0  0  0  0  0
  144.9640  129.7480  100.3280 H   0  0  0  0  0  0  0  0  0  0  0  0
  146.1700  132.5650   99.8720 C   0  0  0  0  0  2  0  0  0  0  0  0
  145.6300  133.2790   98.7530 O   0  0  0  0  0  0  0  0  0  0  0  0
  145.7420  132.6990   97.9780 H   0  0  0  0  0  0  0  0  0  0  0  0
  1  2  1  1  0  0  0
  1  9  1  0  0  0  0
  2  3  1  0  0  0  0
  3  4  1  0  0  0  0
  5  4  1  0  0  0  0
  6  2  1  0  0  0  0
  7  6  1  0  0  0  0
  7  8  1  0  0  0  0
  9 10  1  0  0  0  0
 11 14  1  1  0  0  0
 11 12  1  0  0  0  0
 11  1  1  0  0  0  0
 13 12  1  0  0  0  0
 15 14  1  0  0  0  0
 16 15  1  0  0  0  0
M  END
>  <MODEL>
3

>  <REMARK>
 VINA RESULT:      -5.0      1.653      3.899
  10 active torsions:
  status: ('A' for Active; 'I' for Inactive)
    1  A    between atoms: O_1  and  C_2 
    2  A    between atoms: C_2  and  C_3 
    3  A    between atoms: C_3  and  C_4 
    4  A    between atoms: C_3  and  C_6 
    5  A    between atoms: C_4  and  O_5 
    6  A    between atoms: C_6  and  O_7 
    7  A    between atoms: C_6  and  C_8 
    8  A    between atoms: C_8  and  O_9 
    9  A    between atoms: C_8  and  C_10 
   10  A    between atoms: C_10  and  O_11 

>  <TORSDO>
F 10

$$$$
../results/processed/lowest_conf/7XP5/docked/s5c.pdbqt
 OpenBabel07252416063D

 16 15  0  0  1  0  0  0  0  0999 V2000
  144.5770  133.4180  100.6320 C   0  0  2  0  0  3  0  0  0  0  0  0
  145.9930  132.8820  100.9310 C   0  0  0  0  0  3  0  0  0  0  0  0
  147.0690  133.9230  100.5860 C   0  0  0  0  0  2  0  0  0  0  0  0
  146.9100  135.1070  101.3580 O   0  0  0  0  0  0  0  0  0  0  0  0
  147.8030  135.3490  101.6700 H   0  0  0  0  0  0  0  0  0  0  0  0
  146.2810  131.5820  100.1740 C   0  0  0  0  0  2  0  0  0  0  0  0
  145.1670  130.7040  100.2670 O   0  0  0  0  0  0  0  0  0  0  0  0
  144.5010  131.1510  100.8190 H   0  0  0  0  0  0  0  0  0  0  0  0
  144.6610  134.4030   99.5840 O   0  0  0  0  0  0  0  0  0  0  0  0
  144.6840  135.2600  100.0640 H   0  0  0  0  0  0  0  0  0  0  0  0
  143.8080  134.0470  101.8090 C   0  0  2  0  0  3  0  0  0  0  0  0
  144.0000  135.4810  101.7170 O   0  0  0  0  0  0  0  0  0  0  0  0
  144.9730  135.5880  101.7800 H   0  0  0  0  0  0  0  0  0  0  0  0
  144.2980  133.6140  103.1950 C   0  0  0  0  0  2  0  0  0  0  0  0
  144.9680  134.7290  103.7990 O   0  0  0  0  0  0  0  0  0  0  0  0
  145.9160  134.5050  103.8090 H   0  0  0  0  0  0  0  0  0  0  0  0
  1  9  1  6  0  0  0
  1  2  1  0  0  0  0
  1 11  1  0  0  0  0
  3  2  1  0  0  0  0
  3  4  1  0  0  0  0
  4  5  1  0  0  0  0
  6  7  1  0  0  0  0
  6  2  1  0  0  0  0
  7  8  1  0  0  0  0
  9 10  1  0  0  0  0
 11 14  1  1  0  0  0
 12 13  1  0  0  0  0
 12 11  1  0  0  0  0
 14 15  1  0  0  0  0
 15 16  1  0  0  0  0
M  END
>  <MODEL>
4

>  <REMARK>
 VINA RESULT:      -5.0      1.605      2.863
  10 active torsions:
  status: ('A' for Active; 'I' for Inactive)
    1  A    between atoms: O_1  and  C_2 
    2  A    between atoms: C_2  and  C_3 
    3  A    between atoms: C_3  and  C_4 
    4  A    between atoms: C_3  and  C_6 
    5  A    between atoms: C_4  and  O_5 
    6  A    between atoms: C_6  and  O_7 
    7  A    between atoms: C_6  and  C_8 
    8  A    between atoms: C_8  and  O_9 
    9  A    between atoms: C_8  and  C_10 
   10  A    between atoms: C_10  and  O_11 

>  <TORSDO>
F 10

$$$$
../results/processed/lowest_conf/7XP5/docked/s5c.pdbqt
 OpenBabel07252416063D

 16 15  0  0  1  0  0  0  0  0999 V2000
  144.5300  132.3240  101.9790 C   0  0  2  0  0  3  0  0  0  0  0  0
  144.0400  133.5290  102.8080 C   0  0  0  0  0  3  0  0  0  0  0  0
  142.9260  134.2960  102.0780 C   0  0  0  0  0  2  0  0  0  0  0  0
  143.4380  135.4410  101.4080 O   0  0  0  0  0  0  0  0  0  0  0  0
  144.1340  135.8060  101.9880 H   0  0  0  0  0  0  0  0  0  0  0  0
  145.1840  134.4910  103.1440 C   0  0  0  0  0  2  0  0  0  0  0  0
  145.8910  134.0300  104.2890 O   0  0  0  0  0  0  0  0  0  0  0  0
  145.4820  134.4580  105.0630 H   0  0  0  0  0  0  0  0  0  0  0  0
  145.1240  131.3560  102.8650 O   0  0  0  0  0  0  0  0  0  0  0  0
  145.5690  130.7220  102.2610 H   0  0  0  0  0  0  0  0  0  0  0  0
  145.5420  132.6180  100.8550 C   0  0  2  0  0  3  0  0  0  0  0  0
  144.7880  133.1590   99.7420 O   0  0  0  0  0  0  0  0  0  0  0  0
  144.7970  134.1270   99.9050 H   0  0  0  0  0  0  0  0  0  0  0  0
  146.2940  131.3880  100.3370 C   0  0  0  0  0  2  0  0  0  0  0  0
  145.3550  130.3110  100.2140 O   0  0  0  0  0  0  0  0  0  0  0  0
  145.7260  129.5650  100.7200 H   0  0  0  0  0  0  0  0  0  0  0  0
  1  2  1  1  0  0  0
  1  9  1  0  0  0  0
  2  6  1  0  0  0  0
  3  2  1  0  0  0  0
  4  5  1  0  0  0  0
  4  3  1  0  0  0  0
  6  7  1  0  0  0  0
  7  8  1  0  0  0  0
 10  9  1  0  0  0  0
 11 14  1  6  0  0  0
 11  1  1  0  0  0  0
 12 13  1  0  0  0  0
 12 11  1  0  0  0  0
 15 14  1  0  0  0  0
 15 16  1  0  0  0  0
M  END
>  <MODEL>
5

>  <REMARK>
 VINA RESULT:      -4.9      1.663      3.956
  10 active torsions:
  status: ('A' for Active; 'I' for Inactive)
    1  A    between atoms: O_1  and  C_2 
    2  A    between atoms: C_2  and  C_3 
    3  A    between atoms: C_3  and  C_4 
    4  A    between atoms: C_3  and  C_6 
    5  A    between atoms: C_4  and  O_5 
    6  A    between atoms: C_6  and  O_7 
    7  A    between atoms: C_6  and  C_8 
    8  A    between atoms: C_8  and  O_9 
    9  A    between atoms: C_8  and  C_10 
   10  A    between atoms: C_10  and  O_11 

>  <TORSDO>
F 10

$$$$
../results/processed/lowest_conf/7XP5/docked/s5c.pdbqt
 OpenBabel07252416063D

 16 15  0  0  1  0  0  0  0  0999 V2000
  137.7750  143.4240  100.4560 C   0  0  2  0  0  3  0  0  0  0  0  0
  139.0360  143.3460   99.5690 C   0  0  0  0  0  3  0  0  0  0  0  0
  140.3060  143.6580  100.3740 C   0  0  0  0  0  2  0  0  0  0  0  0
  140.6190  145.0440  100.3330 O   0  0  0  0  0  0  0  0  0  0  0  0
  141.5610  145.1030  100.0810 H   0  0  0  0  0  0  0  0  0  0  0  0
  138.9470  144.2950   98.3700 C   0  0  0  0  0  2  0  0  0  0  0  0
  137.9740  145.3030   98.6130 O   0  0  0  0  0  0  0  0  0  0  0  0
  137.1270  144.8460   98.7630 H   0  0  0  0  0  0  0  0  0  0  0  0
  138.1760  143.6740  101.8180 O   0  0  0  0  0  0  0  0  0  0  0  0
  137.4010  143.3880  102.3490 H   0  0  0  0  0  0  0  0  0  0  0  0
  136.8470  142.1950  100.4550 C   0  0  2  0  0  3  0  0  0  0  0  0
  137.5380  141.1470   99.7320 O   0  0  0  0  0  0  0  0  0  0  0  0
  138.4560  141.1950  100.0760 H   0  0  0  0  0  0  0  0  0  0  0  0
  135.5000  142.4130   99.7570 C   0  0  0  0  0  2  0  0  0  0  0  0
  135.5010  143.7310   99.1920 O   0  0  0  0  0  0  0  0  0  0  0  0
  136.1210  143.7060   98.4410 H   0  0  0  0  0  0  0  0  0  0  0  0
  1  2  1  6  0  0  0
  1  9  1  0  0  0  0
  2  3  1  0  0  0  0
  4  3  1  0  0  0  0
  5  4  1  0  0  0  0
  6  7  1  0  0  0  0
  6  2  1  0  0  0  0
  7  8  1  0  0  0  0
  9 10  1  0  0  0  0
 11 14  1  6  0  0  0
 11  1  1  0  0  0  0
 12 13  1  0  0  0  0
 12 11  1  0  0  0  0
 15 14  1  0  0  0  0
 16 15  1  0  0  0  0
M  END
>  <MODEL>
6

>  <REMARK>
 VINA RESULT:      -4.9     10.501     11.773
  10 active torsions:
  status: ('A' for Active; 'I' for Inactive)
    1  A    between atoms: O_1  and  C_2 
    2  A    between atoms: C_2  and  C_3 
    3  A    between atoms: C_3  and  C_4 
    4  A    between atoms: C_3  and  C_6 
    5  A    between atoms: C_4  and  O_5 
    6  A    between atoms: C_6  and  O_7 
    7  A    between atoms: C_6  and  C_8 
    8  A    between atoms: C_8  and  O_9 
    9  A    between atoms: C_8  and  C_10 
   10  A    between atoms: C_10  and  O_11 

>  <TORSDO>
F 10

$$$$
../results/processed/lowest_conf/7XP5/docked/s5c.pdbqt
 OpenBabel07252416063D

 16 15  0  0  1  0  0  0  0  0999 V2000
  146.0710  133.4050  101.4410 C   0  0  2  0  0  3  0  0  0  0  0  0
  144.5500  133.3650  101.6970 C   0  0  0  0  0  3  0  0  0  0  0  0
  144.0030  134.7600  102.0340 C   0  0  0  0  0  2  0  0  0  0  0  0
  144.0840  135.0270  103.4290 O   0  0  0  0  0  0  0  0  0  0  0  0
  144.5590  135.8760  103.5160 H   0  0  0  0  0  0  0  0  0  0  0  0
  144.1890  132.3910  102.8230 C   0  0  0  0  0  2  0  0  0  0  0  0
  145.1570  131.3530  102.9020 O   0  0  0  0  0  0  0  0  0  0  0  0
  145.6410  131.4820  103.7370 H   0  0  0  0  0  0  0  0  0  0  0  0
  146.5990  134.6470  101.9470 O   0  0  0  0  0  0  0  0  0  0  0  0
  146.8590  135.1410  101.1390 H   0  0  0  0  0  0  0  0  0  0  0  0
  146.5340  133.2570   99.9790 C   0  0  2  0  0  3  0  0  0  0  0  0
  145.3390  133.2350   99.1600 O   0  0  0  0  0  0  0  0  0  0  0  0
  145.6580  133.5210   98.2770 H   0  0  0  0  0  0  0  0  0  0  0  0
  147.3090  131.9680   99.6830 C   0  0  0  0  0  2  0  0  0  0  0  0
  146.7080  130.9060  100.4350 O   0  0  0  0  0  0  0  0  0  0  0  0
  145.8720  131.2600  100.7900 H   0  0  0  0  0  0  0  0  0  0  0  0
  1  2  1  6  0  0  0
  1  9  1  0  0  0  0
  2  3  1  0  0  0  0
  2  6  1  0  0  0  0
  3  4  1  0  0  0  0
  4  5  1  0  0  0  0
  6  7  1  0  0  0  0
  7  8  1  0  0  0  0
 10  9  1  0  0  0  0
 11 14  1  1  0  0  0
 11  1  1  0  0  0  0
 12 11  1  0  0  0  0
 13 12  1  0  0  0  0
 14 15  1  0  0  0  0
 15 16  1  0  0  0  0
M  END
>  <MODEL>
7

>  <REMARK>
 VINA RESULT:      -4.8      2.072      3.586
  10 active torsions:
  status: ('A' for Active; 'I' for Inactive)
    1  A    between atoms: O_1  and  C_2 
    2  A    between atoms: C_2  and  C_3 
    3  A    between atoms: C_3  and  C_4 
    4  A    between atoms: C_3  and  C_6 
    5  A    between atoms: C_4  and  O_5 
    6  A    between atoms: C_6  and  O_7 
    7  A    between atoms: C_6  and  C_8 
    8  A    between atoms: C_8  and  O_9 
    9  A    between atoms: C_8  and  C_10 
   10  A    between atoms: C_10  and  O_11 

>  <TORSDO>
F 10

$$$$
../results/processed/lowest_conf/7XP5/docked/s5c.pdbqt
 OpenBabel07252416063D

 16 15  0  0  1  0  0  0  0  0999 V2000
  145.2140  132.6690  100.6620 C   0  0  2  0  0  3  0  0  0  0  0  0
  144.0950  133.1150  101.6270 C   0  0  0  0  0  3  0  0  0  0  0  0
  143.5150  134.4780  101.2200 C   0  0  0  0  0  2  0  0  0  0  0  0
  144.0510  135.5280  102.0150 O   0  0  0  0  0  0  0  0  0  0  0  0
  143.3600  135.7560  102.6660 H   0  0  0  0  0  0  0  0  0  0  0  0
  144.5880  133.1840  103.0760 C   0  0  0  0  0  2  0  0  0  0  0  0
  145.7330  134.0230  103.1640 O   0  0  0  0  0  0  0  0  0  0  0  0
  145.4170  134.9040  103.4320 H   0  0  0  0  0  0  0  0  0  0  0  0
  146.3250  132.1700  101.4320 O   0  0  0  0  0  0  0  0  0  0  0  0
  146.6020  131.3590  100.9510 H   0  0  0  0  0  0  0  0  0  0  0  0
  145.7560  133.7320   99.6870 C   0  0  2  0  0  3  0  0  0  0  0  0
  145.8550  133.0970   98.3880 O   0  0  0  0  0  0  0  0  0  0  0  0
  145.1130  133.4920   97.8810 H   0  0  0  0  0  0  0  0  0  0  0  0
  147.1490  134.2670  100.0370 C   0  0  0  0  0  2  0  0  0  0  0  0
  147.0060  135.2200  101.0980 O   0  0  0  0  0  0  0  0  0  0  0  0
  146.0580  135.2380  101.3240 H   0  0  0  0  0  0  0  0  0  0  0  0
  1  9  1  1  0  0  0
  1  2  1  0  0  0  0
  2  6  1  0  0  0  0
  3  2  1  0  0  0  0
  3  4  1  0  0  0  0
  4  5  1  0  0  0  0
  6  7  1  0  0  0  0
  7  8  1  0  0  0  0
 10  9  1  0  0  0  0
 11 14  1  1  0  0  0
 11  1  1  0  0  0  0
 12 11  1  0  0  0  0
 13 12  1  0  0  0  0
 14 15  1  0  0  0  0
 15 16  1  0  0  0  0
M  END
>  <MODEL>
8

>  <REMARK>
 VINA RESULT:      -4.8      1.759      3.263
  10 active torsions:
  status: ('A' for Active; 'I' for Inactive)
    1  A    between atoms: O_1  and  C_2 
    2  A    between atoms: C_2  and  C_3 
    3  A    between atoms: C_3  and  C_4 
    4  A    between atoms: C_3  and  C_6 
    5  A    between atoms: C_4  and  O_5 
    6  A    between atoms: C_6  and  O_7 
    7  A    between atoms: C_6  and  C_8 
    8  A    between atoms: C_8  and  O_9 
    9  A    between atoms: C_8  and  C_10 
   10  A    between atoms: C_10  and  O_11 

>  <TORSDO>
F 10

$$$$
../results/processed/lowest_conf/7XP5/docked/s5c.pdbqt
 OpenBabel07252416063D

 16 15  0  0  1  0  0  0  0  0999 V2000
  144.9760  133.9390  100.8900 C   0  0  2  0  0  3  0  0  0  0  0  0
  144.4980  132.5690  101.4140 C   0  0  0  0  0  3  0  0  0  0  0  0
  144.0970  132.6450  102.8950 C   0  0  0  0  0  2  0  0  0  0  0  0
  145.1400  133.2010  103.6870 O   0  0  0  0  0  0  0  0  0  0  0  0
  145.5160  133.9350  103.1640 H   0  0  0  0  0  0  0  0  0  0  0  0
  145.5660  131.4850  101.2310 C   0  0  0  0  0  2  0  0  0  0  0  0
  145.2020  130.6150  100.1670 O   0  0  0  0  0  0  0  0  0  0  0  0
  145.8940  129.9310  100.1140 H   0  0  0  0  0  0  0  0  0  0  0  0
  144.1100  134.3580   99.8180 O   0  0  0  0  0  0  0  0  0  0  0  0
  143.2590  133.9040  100.0080 H   0  0  0  0  0  0  0  0  0  0  0  0
  146.4280  134.0210  100.3810 C   0  0  2  0  0  3  0  0  0  0  0  0
  147.0250  135.1860  101.0040 O   0  0  0  0  0  0  0  0  0  0  0  0
  146.6820  135.1590  101.9230 H   0  0  0  0  0  0  0  0  0  0  0  0
  146.5640  134.1990   98.8650 C   0  0  0  0  0  2  0  0  0  0  0  0
  145.9920  133.0480   98.2290 O   0  0  0  0  0  0  0  0  0  0  0  0
  146.2100  133.1220   97.2830 H   0  0  0  0  0  0  0  0  0  0  0  0
  1  9  1  6  0  0  0
  1  2  1  0  0  0  0
  2  3  1  0  0  0  0
  3  4  1  0  0  0  0
  5  4  1  0  0  0  0
  6  2  1  0  0  0  0
  7  6  1  0  0  0  0
  8  7  1  0  0  0  0
  9 10  1  0  0  0  0
 11 14  1  6  0  0  0
 11  1  1  0  0  0  0
 11 12  1  0  0  0  0
 12 13  1  0  0  0  0
 15 14  1  0  0  0  0
 16 15  1  0  0  0  0
M  END
>  <MODEL>
9

>  <REMARK>
 VINA RESULT:      -4.7      1.868      2.930
  10 active torsions:
  status: ('A' for Active; 'I' for Inactive)
    1  A    between atoms: O_1  and  C_2 
    2  A    between atoms: C_2  and  C_3 
    3  A    between atoms: C_3  and  C_4 
    4  A    between atoms: C_3  and  C_6 
    5  A    between atoms: C_4  and  O_5 
    6  A    between atoms: C_6  and  O_7 
    7  A    between atoms: C_6  and  C_8 
    8  A    between atoms: C_8  and  O_9 
    9  A    between atoms: C_8  and  C_10 
   10  A    between atoms: C_10  and  O_11 

>  <TORSDO>
F 10

$$$$
