@<TRIPOS>MOLECULE
*****
 24 24 0 0 0
SMALL
GASTEIGER

@<TRIPOS>ATOM
      1 C          -2.8668   -1.2327   -0.7987 C.3     1  UNL1       -0.0457
      2 C          -2.3769   -0.0714    0.0662 C.3     1  UNL1        0.0275
      3 N          -2.8768    1.1951   -0.4730 N.3     1  UNL1       -0.3238
      4 C          -0.8634   -0.0584    0.1679 C.ar    1  UNL1       -0.0309
      5 C          -0.0618    0.2895   -0.9321 C.ar    1  UNL1       -0.0564
      6 C           1.3328    0.2861   -0.8356 C.ar    1  UNL1       -0.0493
      7 C           1.9478   -0.0606    0.3728 C.ar    1  UNL1        0.0379
      8 C           1.1586   -0.4291    1.4683 C.ar    1  UNL1       -0.0493
      9 C          -0.2354   -0.4240    1.3676 C.ar    1  UNL1       -0.0564
     10 C           3.4287   -0.0754    0.5317 C.2     1  UNL1        0.2577
     11 O           3.9409   -0.8522    1.3306 O.2     1  UNL1       -0.2690
     12 N           4.1154    0.8415   -0.2361 N.am    1  UNL1       -0.2243
     13 CL          5.8266    1.0251   -0.0552 Cl      1  UNL1        0.0012
     14 H          -3.9619   -1.2688   -0.8209 H       1  UNL1        0.0248
     15 H          -2.5140   -1.1525   -1.8335 H       1  UNL1        0.0248
     16 H          -2.5109   -2.1904   -0.4023 H       1  UNL1        0.0248
     17 H          -2.8028   -0.1906    1.0703 H       1  UNL1        0.0505
     18 H          -3.8952    1.1850   -0.4637 H       1  UNL1        0.1188
     19 H          -2.5928    1.9491    0.1514 H       1  UNL1        0.1188
     20 H          -0.5322    0.5617   -1.8763 H       1  UNL1        0.0621
     21 H           1.9131    0.5275   -1.7214 H       1  UNL1        0.0625
     22 H           1.6281   -0.7213    2.4063 H       1  UNL1        0.0625
     23 H          -0.8257   -0.7144    2.2344 H       1  UNL1        0.0621
     24 H           3.6246    1.5814   -0.7188 H       1  UNL1        0.1692
@<TRIPOS>BOND
     1     1     2    1
     2     2     3    1
     3     2     4    1
     4     4     5   ar
     5     5     6   ar
     6     6     7   ar
     7     7     8   ar
     8     8     9   ar
     9     7    10    1
    10    10    11    2
    11    10    12   am
    12    12    13    1
    13     9     4   ar
    14     1    14    1
    15     1    15    1
    16     1    16    1
    17     2    17    1
    18     3    18    1
    19     3    19    1
    20     5    20    1
    21     6    21    1
    22     8    22    1
    23     9    23    1
    24    12    24    1
