@<TRIPOS>MOLECULE
*****
 17 17 0 0 0
SMALL
GASTEIGER

@<TRIPOS>ATOM
      1 C          -2.5794   -0.4003   -0.0394 C.ar    1  UNL1       -0.0617
      2 C          -2.1427    0.8097    0.4981 C.ar    1  UNL1       -0.0610
      3 C          -0.7760    1.0678    0.6155 C.ar    1  UNL1       -0.0496
      4 C           0.1604    0.1180    0.1868 C.ar    1  UNL1        0.0387
      5 C          -0.2835   -1.1028   -0.3393 C.ar    1  UNL1       -0.0496
      6 C          -1.6526   -1.3568   -0.4537 C.ar    1  UNL1       -0.0610
      7 C           1.6061    0.4381    0.3298 C.2     1  UNL1        0.2665
      8 O           1.9985    1.2975    1.1155 O.2     1  UNL1       -0.2681
      9 N           2.4757   -0.2369   -0.5018 N.am    1  UNL1       -0.1935
     10 O           3.8047    0.2570   -0.4826 O.3     1  UNL1       -0.2949
     11 H          -3.6446   -0.6018   -0.1266 H       1  UNL1        0.0618
     12 H          -2.8654    1.5514    0.8297 H       1  UNL1        0.0618
     13 H          -0.4432    2.0130    1.0408 H       1  UNL1        0.0625
     14 H           0.4158   -1.8780   -0.6397 H       1  UNL1        0.0625
     15 H          -1.9986   -2.3057   -0.8574 H       1  UNL1        0.0618
     16 H           2.1671   -0.6216   -1.3879 H       1  UNL1        0.1825
     17 H           3.7576    0.9515    0.2123 H       1  UNL1        0.2414
@<TRIPOS>BOND
     1     1     2   ar
     2     2     3   ar
     3     3     4   ar
     4     4     5   ar
     5     5     6   ar
     6     4     7    1
     7     7     8    2
     8     7     9   am
     9     9    10    1
    10     6     1   ar
    11     1    11    1
    12     2    12    1
    13     3    13    1
    14     5    14    1
    15     6    15    1
    16     9    16    1
    17    10    17    1
