@<TRIPOS>MOLECULE
*****
 23 23 0 0 0
SMALL
GASTEIGER

@<TRIPOS>ATOM
      1 C          -1.9768    0.2648    1.2815 C.3     1  UNL1       -0.0293
      2 C          -2.0132   -0.0626   -0.2082 C.3     1  UNL1        0.1267
      3 N          -3.3966    0.1911   -0.7084 N.3     1  UNL1       -0.3097
      4 S          -0.6768    0.8212   -1.1089 S.O2    1  UNL1        0.0122
      5 O          -0.7405    2.2305   -0.7643 O.2     1  UNL1       -0.1679
      6 O          -0.7331    0.4126   -2.5022 O.2     1  UNL1       -0.1679
      7 C           0.8239    0.1529   -0.4332 C.ar    1  UNL1        0.0899
      8 C           1.2558   -1.1101   -0.8491 C.ar    1  UNL1       -0.0368
      9 C           2.4369   -1.6355   -0.3261 C.ar    1  UNL1       -0.0600
     10 C           3.1824   -0.8976    0.5953 C.ar    1  UNL1       -0.0616
     11 C           2.7556    0.3714    0.9912 C.ar    1  UNL1       -0.0600
     12 C           1.5761    0.9052    0.4731 C.ar    1  UNL1       -0.0368
     13 H          -1.0179   -0.0148    1.7279 H       1  UNL1        0.0261
     14 H          -2.1288    1.3344    1.4630 H       1  UNL1        0.0261
     15 H          -2.7561   -0.2839    1.8223 H       1  UNL1        0.0261
     16 H          -1.8098   -1.1292   -0.3549 H       1  UNL1        0.0703
     17 H          -3.5774    1.1953   -0.6281 H       1  UNL1        0.1199
     18 H          -3.3928    0.0131   -1.7172 H       1  UNL1        0.1199
     19 H           0.6917   -1.6820   -1.5827 H       1  UNL1        0.0636
     20 H           2.7844   -2.6162   -0.6431 H       1  UNL1        0.0618
     21 H           4.1062   -1.3078    0.9971 H       1  UNL1        0.0618
     22 H           3.3487    0.9472    1.6981 H       1  UNL1        0.0618
     23 H           1.2580    1.9002    0.7770 H       1  UNL1        0.0636
@<TRIPOS>BOND
     1     1     2    1
     2     2     3    1
     3     2     4    1
     4     4     5    2
     5     4     6    2
     6     4     7    1
     7     7     8   ar
     8     8     9   ar
     9     9    10   ar
    10    10    11   ar
    11    11    12   ar
    12    12     7   ar
    13     1    13    1
    14     1    14    1
    15     1    15    1
    16     2    16    1
    17     3    17    1
    18     3    18    1
    19     8    19    1
    20     9    20    1
    21    10    21    1
    22    11    22    1
    23    12    23    1
