@<TRIPOS>MOLECULE
*****
 26 25 0 0 0
SMALL
GASTEIGER

@<TRIPOS>ATOM
      1 C           2.8906    1.3701    2.1154 C.3     1  UNL1        0.0817
      2 O           2.5187    1.0104    0.7831 O.3     1  UNL1       -0.4661
      3 C           1.3897    0.2514    0.7076 C.2     1  UNL1        0.3383
      4 O           0.7179   -0.1074    1.6685 O.2     1  UNL1       -0.2478
      5 C           1.0519   -0.0714   -0.7471 C.3     1  UNL1        0.1778
      6 C           2.1127   -1.0255   -1.2950 C.3     1  UNL1        0.0808
      7 O           1.8238   -1.3467   -2.6582 O.3     1  UNL1       -0.3919
      8 O          -0.2132   -0.7448   -0.8595 O.3     1  UNL1       -0.3605
      9 C          -1.3341    0.1499   -0.7981 C.3     1  UNL1        0.0745
     10 C          -2.4473   -0.5251    0.0123 C.3     1  UNL1        0.0757
     11 O          -2.1222   -0.4944    1.4049 O.3     1  UNL1       -0.3898
     12 C          -3.7768    0.1906   -0.1634 C.3     1  UNL1       -0.0368
     13 H           3.0984    0.4749    2.7098 H       1  UNL1        0.0661
     14 H           3.8033    1.9700    2.0617 H       1  UNL1        0.0661
     15 H           2.1057    1.9735    2.5820 H       1  UNL1        0.0661
     16 H           1.0195    0.8479   -1.3439 H       1  UNL1        0.0736
     17 H           3.1138   -0.5855   -1.2571 H       1  UNL1        0.0588
     18 H           2.1299   -1.9657   -0.7326 H       1  UNL1        0.0588
     19 H           0.9000   -1.6653   -2.6620 H       1  UNL1        0.2095
     20 H          -1.0555    1.1020   -0.3305 H       1  UNL1        0.0586
     21 H          -1.6549    0.3375   -1.8278 H       1  UNL1        0.0586
     22 H          -2.5448   -1.5777   -0.2748 H       1  UNL1        0.0613
     23 H          -1.1661   -0.6930    1.4950 H       1  UNL1        0.2099
     24 H          -3.7091    1.2318    0.1710 H       1  UNL1        0.0255
     25 H          -4.1006    0.1780   -1.2085 H       1  UNL1        0.0255
     26 H          -4.5514   -0.2858    0.4473 H       1  UNL1        0.0255
@<TRIPOS>BOND
     1     1     2    1
     2     2     3    1
     3     3     4    2
     4     3     5    1
     5     5     6    1
     6     6     7    1
     7     5     8    1
     8     8     9    1
     9     9    10    1
    10    10    11    1
    11    10    12    1
    12     1    13    1
    13     1    14    1
    14     1    15    1
    15     5    16    1
    16     6    17    1
    17     6    18    1
    18     7    19    1
    19     9    20    1
    20     9    21    1
    21    10    22    1
    22    11    23    1
    23    12    24    1
    24    12    25    1
    25    12    26    1
