@<TRIPOS>MOLECULE
*****
 26 26 0 0 0
SMALL
GASTEIGER

@<TRIPOS>ATOM
      1 C           3.6596   -0.6653   -0.8842 C.3     1  UNL1        0.0333
      2 C           2.7845    0.4167   -0.3295 C.2     1  UNL1        0.3061
      3 O           3.1921    1.3662    0.3235 O.2     1  UNL1       -0.2511
      4 O           1.4885    0.1749   -0.6534 O.3     1  UNL1       -0.4353
      5 C           0.5510    1.1537   -0.1911 C.3     1  UNL1        0.2050
      6 C           0.1813    0.9283    1.2783 C.3     1  UNL1        0.0124
      7 C          -0.5946   -0.3714    1.4572 C.3     1  UNL1       -0.0188
      8 C          -1.7912   -0.4185    0.5102 C.3     1  UNL1        0.0814
      9 O          -2.3955   -1.7034    0.6223 O.3     1  UNL1       -0.3892
     10 C          -1.3373   -0.1213   -0.9310 C.3     1  UNL1        0.0857
     11 C          -2.5238   -0.0220   -1.8855 C.3     1  UNL1       -0.0361
     12 O          -0.6334    1.1246   -1.0019 O.3     1  UNL1       -0.3358
     13 H           3.3834   -1.6268   -0.4442 H       1  UNL1        0.0342
     14 H           3.5644   -0.6979   -1.9725 H       1  UNL1        0.0342
     15 H           4.7026   -0.4525   -0.6328 H       1  UNL1        0.0342
     16 H           0.9707    2.1587   -0.3175 H       1  UNL1        0.1056
     17 H           1.0738    0.9033    1.9118 H       1  UNL1        0.0326
     18 H          -0.4492    1.7587    1.6193 H       1  UNL1        0.0326
     19 H          -0.9342   -0.4722    2.4950 H       1  UNL1        0.0293
     20 H           0.0612   -1.2325    1.2740 H       1  UNL1        0.0293
     21 H          -2.5189    0.3345    0.8383 H       1  UNL1        0.0619
     22 H          -3.2749   -1.6542    0.2097 H       1  UNL1        0.2099
     23 H          -0.6911   -0.9287   -1.2986 H       1  UNL1        0.0620
     24 H          -2.1803    0.2379   -2.8929 H       1  UNL1        0.0255
     25 H          -3.0777   -0.9633   -1.9437 H       1  UNL1        0.0255
     26 H          -3.2109    0.7724   -1.5739 H       1  UNL1        0.0255
@<TRIPOS>BOND
     1     1     2    1
     2     2     3    2
     3     2     4    1
     4     4     5    1
     5     5     6    1
     6     6     7    1
     7     7     8    1
     8     8     9    1
     9     8    10    1
    10    10    11    1
    11    10    12    1
    12    12     5    1
    13     1    13    1
    14     1    14    1
    15     1    15    1
    16     5    16    1
    17     6    17    1
    18     6    18    1
    19     7    19    1
    20     7    20    1
    21     8    21    1
    22     9    22    1
    23    10    23    1
    24    11    24    1
    25    11    25    1
    26    11    26    1
