@<TRIPOS>MOLECULE
*****
 44 45 0 0 0
SMALL
GASTEIGER

@<TRIPOS>ATOM
      1 C           1.8354   -2.8331   -1.1060 C.3     1  UNL1       -0.0361
      2 C           2.0879   -1.4087   -0.6266 C.3     1  UNL1        0.0873
      3 O           1.1262   -0.5517   -1.2508 O.3     1  UNL1       -0.3431
      4 C           1.1446    0.7827   -0.7436 C.3     1  UNL1        0.1883
      5 O           0.2328    0.9635    0.3422 O.3     1  UNL1       -0.3401
      6 C          -1.1401    0.7522   -0.0099 C.3     1  UNL1        0.1184
      7 C          -1.6016   -0.7012    0.2293 C.3     1  UNL1        0.1134
      8 C          -1.2122   -1.2984    1.5915 C.3     1  UNL1        0.0730
      9 O          -1.5571   -2.6886    1.6187 O.3     1  UNL1       -0.3924
     10 O          -3.0189   -0.8603   -0.0141 O.3     1  UNL1       -0.3407
     11 C          -3.8372    0.0236    0.7364 C.3     1  UNL1        0.1854
     12 O          -5.1872   -0.1745    0.3267 O.3     1  UNL1       -0.3649
     13 C          -3.4908    1.4970    0.4632 C.3     1  UNL1        0.1339
     14 O          -4.2965    2.3651    1.2769 O.3     1  UNL1       -0.3841
     15 C          -2.0162    1.7515    0.7648 C.3     1  UNL1        0.1144
     16 O          -1.8051    1.6549    2.1815 O.3     1  UNL1       -0.3864
     17 C           2.5424    1.2434   -0.2659 C.3     1  UNL1        0.1341
     18 O           2.6849    2.6713   -0.3548 O.3     1  UNL1       -0.3841
     19 C           3.6015    0.5706   -1.1319 C.3     1  UNL1        0.1140
     20 O           4.9156    1.0300   -0.7742 O.3     1  UNL1       -0.3864
     21 C           3.5237   -0.9550   -0.9603 C.3     1  UNL1        0.1095
     22 O           4.4001   -1.3681    0.0972 O.3     1  UNL1       -0.3866
     23 H           1.9204   -2.8996   -2.1967 H       1  UNL1        0.0255
     24 H           2.5386   -3.5390   -0.6550 H       1  UNL1        0.0255
     25 H           0.8163   -3.1465   -0.8527 H       1  UNL1        0.0255
     26 H           1.9239   -1.3960    0.4588 H       1  UNL1        0.0621
     27 H           0.8244    1.4424   -1.5601 H       1  UNL1        0.0938
     28 H          -1.2919    0.9812   -1.0743 H       1  UNL1        0.0651
     29 H          -1.1300   -1.3377   -0.5274 H       1  UNL1        0.0647
     30 H          -1.7403   -0.8320    2.4249 H       1  UNL1        0.0584
     31 H          -0.1379   -1.2198    1.7750 H       1  UNL1        0.0584
     32 H          -2.3951   -2.7790    1.1290 H       1  UNL1        0.2095
     33 H          -3.7946   -0.2077    1.8057 H       1  UNL1        0.0935
     34 H          -5.3809   -1.1014    0.5508 H       1  UNL1        0.2126
     35 H          -3.6999    1.7414   -0.5854 H       1  UNL1        0.0671
     36 H          -5.2189    2.0825    1.1094 H       1  UNL1        0.2101
     37 H          -1.7384    2.7780    0.4969 H       1  UNL1        0.0648
     38 H          -2.4645    2.2606    2.5791 H       1  UNL1        0.2100
     39 H           2.7047    0.9920    0.7901 H       1  UNL1        0.0671
     40 H           2.0143    3.0411    0.2522 H       1  UNL1        0.2101
     41 H           3.4414    0.8432   -2.1826 H       1  UNL1        0.0648
     42 H           4.8264    2.0030   -0.6953 H       1  UNL1        0.2100
     43 H           3.8918   -1.4272   -1.8786 H       1  UNL1        0.0646
     44 H           5.1579   -0.7456    0.0498 H       1  UNL1        0.2100
@<TRIPOS>BOND
     1     1     2    1
     2     2     3    1
     3     3     4    1
     4     4     5    1
     5     5     6    1
     6     6     7    1
     7     7     8    1
     8     8     9    1
     9     7    10    1
    10    10    11    1
    11    11    12    1
    12    11    13    1
    13    13    14    1
    14    13    15    1
    15    15    16    1
    16     4    17    1
    17    17    18    1
    18    17    19    1
    19    19    20    1
    20    19    21    1
    21    21    22    1
    22    21     2    1
    23    15     6    1
    24     1    23    1
    25     1    24    1
    26     1    25    1
    27     2    26    1
    28     4    27    1
    29     6    28    1
    30     7    29    1
    31     8    30    1
    32     8    31    1
    33     9    32    1
    34    11    33    1
    35    12    34    1
    36    13    35    1
    37    14    36    1
    38    15    37    1
    39    16    38    1
    40    17    39    1
    41    18    40    1
    42    19    41    1
    43    20    42    1
    44    21    43    1
    45    22    44    1
