@<TRIPOS>MOLECULE
*****
 19 19 0 0 0
SMALL
GASTEIGER

@<TRIPOS>ATOM
      1 O           3.0371    0.2197   -0.4396 O.3     1  UNL1       -0.3924
      2 C           1.8655   -0.5071   -0.8162 C.3     1  UNL1        0.0729
      3 C           0.7476   -0.2404    0.1877 C.3     1  UNL1        0.1105
      4 O           0.4531    1.1784    0.2007 O.3     1  UNL1       -0.3434
      5 C          -0.9605    1.3286    0.0865 C.3     1  UNL1        0.1591
      6 C          -1.5787   -0.0142    0.4132 C.3     1  UNL1        0.0268
      7 C          -0.5504   -0.9600   -0.1621 C.3     1  UNL1        0.0882
      8 O          -0.6289   -2.2476    0.4251 O.3     1  UNL1       -0.3890
      9 O          -1.2586    1.6655   -1.2551 O.3     1  UNL1       -0.3669
     10 H           2.7251    1.1166   -0.2118 H       1  UNL1        0.2095
     11 H           2.1188   -1.5703   -0.8586 H       1  UNL1        0.0584
     12 H           1.5852   -0.1679   -1.8188 H       1  UNL1        0.0584
     13 H           1.0941   -0.5005    1.1956 H       1  UNL1        0.0646
     14 H          -1.3172    2.1241    0.7477 H       1  UNL1        0.0908
     15 H          -2.5700   -0.1636   -0.0250 H       1  UNL1        0.0340
     16 H          -1.6572   -0.1585    1.4975 H       1  UNL1        0.0340
     17 H          -0.6749   -1.0568   -1.2473 H       1  UNL1        0.0621
     18 H          -1.4987   -2.6207    0.1973 H       1  UNL1        0.2099
     19 H          -0.9313    2.5747   -1.3647 H       1  UNL1        0.2125
@<TRIPOS>BOND
     1     1     2    1
     2     2     3    1
     3     3     4    1
     4     4     5    1
     5     5     6    1
     6     6     7    1
     7     7     8    1
     8     5     9    1
     9     7     3    1
    10     1    10    1
    11     2    11    1
    12     2    12    1
    13     3    13    1
    14     5    14    1
    15     6    15    1
    16     6    16    1
    17     7    17    1
    18     8    18    1
    19     9    19    1
