
     RDKit          3D

 24 24  0  0  0  0  0  0  0  0999 V2000
    2.5204    0.6616   -1.4510 C   0  0  0  0  0  0  0  0  0  0  0  0
    1.3634    0.1470   -0.6434 C   0  0  0  0  0  0  0  0  0  0  0  0
    1.4591   -0.9859    0.0708 C   0  0  0  0  0  0  0  0  0  0  0  0
    0.2947   -1.5223    0.8180 C   0  0  0  0  0  0  0  0  0  0  0  0
    0.4431   -2.5263    1.5134 O   0  0  0  0  0  0  0  0  0  0  0  0
   -1.0449   -0.8362    0.6722 C   0  0  0  0  0  0  0  0  0  0  0  0
   -1.8572   -1.4585   -0.4311 C   0  0  0  0  0  0  0  0  0  0  0  0
   -1.4480   -2.1053   -1.3799 O   0  0  0  0  0  0  0  0  0  0  0  0
   -3.1758   -1.1952   -0.3119 O   0  0  0  0  0  0  0  0  0  0  0  0
   -0.8852    0.6770    0.4413 C   0  0  0  0  0  0  0  0  0  0  0  0
   -0.4597    1.3869    1.7347 C   0  0  0  0  0  0  0  0  0  0  0  0
    0.1012    0.9694   -0.7036 C   0  0  0  0  0  0  0  0  0  0  0  0
    3.3941    0.0047   -1.3846 H   0  0  0  0  0  0  0  0  0  0  0  0
    2.8204    1.6528   -1.0961 H   0  0  0  0  0  0  0  0  0  0  0  0
    2.2407    0.7389   -2.5067 H   0  0  0  0  0  0  0  0  0  0  0  0
    2.3653   -1.5792    0.1216 H   0  0  0  0  0  0  0  0  0  0  0  0
   -1.5852   -1.0087    1.6130 H   0  0  0  0  0  0  0  0  0  0  0  0
   -3.5828   -1.6621   -1.0728 H   0  0  0  0  0  0  0  0  0  0  0  0
   -1.8553    1.1060    0.1558 H   0  0  0  0  0  0  0  0  0  0  0  0
   -1.1941    1.2134    2.5285 H   0  0  0  0  0  0  0  0  0  0  0  0
   -0.3947    2.4688    1.5764 H   0  0  0  0  0  0  0  0  0  0  0  0
    0.5143    1.0426    2.0963 H   0  0  0  0  0  0  0  0  0  0  0  0
   -0.3872    0.7736   -1.6668 H   0  0  0  0  0  0  0  0  0  0  0  0
    0.3536    2.0372   -0.6943 H   0  0  0  0  0  0  0  0  0  0  0  0
  1  2  1  0
  2  3  2  0
  3  4  1  0
  4  5  2  0
  4  6  1  0
  6  7  1  0
  7  8  2  0
  7  9  1  0
  6 10  1  0
 10 11  1  0
 10 12  1  0
 12  2  1  0
  1 13  1  0
  1 14  1  0
  1 15  1  0
  3 16  1  0
  6 17  1  0
  9 18  1  0
 10 19  1  0
 11 20  1  0
 11 21  1  0
 11 22  1  0
 12 23  1  0
 12 24  1  0
M  END

