
     RDKit          3D

 17 17  0  0  0  0  0  0  0  0999 V2000
   -2.5794   -0.4003   -0.0394 C   0  0  0  0  0  0  0  0  0  0  0  0
   -2.1427    0.8097    0.4981 C   0  0  0  0  0  0  0  0  0  0  0  0
   -0.7760    1.0678    0.6155 C   0  0  0  0  0  0  0  0  0  0  0  0
    0.1604    0.1180    0.1868 C   0  0  0  0  0  0  0  0  0  0  0  0
   -0.2835   -1.1028   -0.3393 C   0  0  0  0  0  0  0  0  0  0  0  0
   -1.6526   -1.3568   -0.4537 C   0  0  0  0  0  0  0  0  0  0  0  0
    1.6061    0.4381    0.3298 C   0  0  0  0  0  0  0  0  0  0  0  0
    1.9985    1.2975    1.1155 O   0  0  0  0  0  0  0  0  0  0  0  0
    2.4757   -0.2369   -0.5018 N   0  0  0  0  0  0  0  0  0  0  0  0
    3.8047    0.2570   -0.4826 O   0  0  0  0  0  0  0  0  0  0  0  0
   -3.6446   -0.6018   -0.1266 H   0  0  0  0  0  0  0  0  0  0  0  0
   -2.8654    1.5514    0.8297 H   0  0  0  0  0  0  0  0  0  0  0  0
   -0.4432    2.0130    1.0408 H   0  0  0  0  0  0  0  0  0  0  0  0
    0.4158   -1.8780   -0.6397 H   0  0  0  0  0  0  0  0  0  0  0  0
   -1.9986   -2.3057   -0.8574 H   0  0  0  0  0  0  0  0  0  0  0  0
    2.1671   -0.6216   -1.3879 H   0  0  0  0  0  0  0  0  0  0  0  0
    3.7576    0.9515    0.2123 H   0  0  0  0  0  0  0  0  0  0  0  0
  1  2  2  0
  2  3  1  0
  3  4  2  0
  4  5  1  0
  5  6  2  0
  4  7  1  0
  7  8  2  0
  7  9  1  0
  9 10  1  0
  6  1  1  0
  1 11  1  0
  2 12  1  0
  3 13  1  0
  5 14  1  0
  6 15  1  0
  9 16  1  0
 10 17  1  0
M  END

