
     RDKit          3D

 25 25  0  0  0  0  0  0  0  0999 V2000
    3.0332   -0.3591   -0.1578 C   0  0  0  0  0  0  0  0  0  0  0  0
    1.6010    0.0328    0.2033 C   0  0  0  0  0  0  0  0  0  0  0  0
    0.7947   -1.2014    0.6309 C   0  0  0  0  0  0  0  0  0  0  0  0
   -0.6677   -0.8626    0.9186 C   0  0  0  0  0  0  0  0  0  0  0  0
   -1.3155   -0.1576   -0.2757 C   0  0  0  0  0  0  0  0  0  0  0  0
   -0.5361    1.1048   -0.6726 C   0  0  0  0  0  0  0  0  0  0  0  0
    0.9249    0.7567   -0.9750 C   0  0  0  0  0  0  0  0  0  0  0  0
   -0.5395    2.0741    0.3780 O   0  0  0  0  0  0  0  0  0  0  0  0
   -2.7554    0.1773    0.0221 C   0  0  0  0  0  0  0  0  0  0  0  0
   -3.2185    1.2898    0.2183 O   0  0  0  0  0  0  0  0  0  0  0  0
   -3.5484   -0.9110    0.0515 O   0  0  0  0  0  0  0  0  0  0  0  0
    3.6211    0.5246   -0.4272 H   0  0  0  0  0  0  0  0  0  0  0  0
    3.0552   -1.0521   -1.0057 H   0  0  0  0  0  0  0  0  0  0  0  0
    3.5279   -0.8451    0.6897 H   0  0  0  0  0  0  0  0  0  0  0  0
    1.6502    0.7229    1.0559 H   0  0  0  0  0  0  0  0  0  0  0  0
    1.2441   -1.6489    1.5255 H   0  0  0  0  0  0  0  0  0  0  0  0
    0.8361   -1.9634   -0.1581 H   0  0  0  0  0  0  0  0  0  0  0  0
   -0.7323   -0.2321    1.8146 H   0  0  0  0  0  0  0  0  0  0  0  0
   -1.2107   -1.7858    1.1546 H   0  0  0  0  0  0  0  0  0  0  0  0
   -1.3180   -0.8334   -1.1420 H   0  0  0  0  0  0  0  0  0  0  0  0
   -0.9874    1.5763   -1.5535 H   0  0  0  0  0  0  0  0  0  0  0  0
    0.9695    0.1280   -1.8733 H   0  0  0  0  0  0  0  0  0  0  0  0
    1.4820    1.6768   -1.1916 H   0  0  0  0  0  0  0  0  0  0  0  0
   -1.4702    2.3495    0.5086 H   0  0  0  0  0  0  0  0  0  0  0  0
   -4.4401   -0.5611    0.2609 H   0  0  0  0  0  0  0  0  0  0  0  0
  1  2  1  0
  2  3  1  0
  3  4  1  0
  4  5  1  0
  5  6  1  0
  6  7  1  0
  6  8  1  0
  5  9  1  0
  9 10  2  0
  9 11  1  0
  7  2  1  0
  1 12  1  0
  1 13  1  0
  1 14  1  0
  2 15  1  0
  3 16  1  0
  3 17  1  0
  4 18  1  0
  4 19  1  0
  5 20  1  0
  6 21  1  0
  7 22  1  0
  7 23  1  0
  8 24  1  0
 11 25  1  0
M  END

