
     RDKit          3D

 15 15  0  0  0  0  0  0  0  0999 V2000
    2.3007    2.1589    0.3366 O   0  0  0  0  0  0  0  0  0  0  0  0
    1.6116    1.1640    0.1677 C   0  0  0  0  0  0  0  0  0  0  0  0
    0.1375    1.2454    0.2385 C   0  0  0  0  0  0  0  0  0  0  0  0
   -0.6099    0.1470    0.0515 C   0  0  0  0  0  0  0  0  0  0  0  0
   -0.0131   -1.1465   -0.2238 C   0  0  0  0  0  0  0  0  0  0  0  0
    1.3085   -1.3388   -0.3107 C   0  0  0  0  0  0  0  0  0  0  0  0
    2.2346   -0.2020   -0.1228 C   0  0  0  0  0  0  0  0  0  0  0  0
    3.4434   -0.3592   -0.1987 O   0  0  0  0  0  0  0  0  0  0  0  0
   -2.0814    0.3405    0.1442 C   0  0  0  0  0  0  0  0  0  0  0  0
   -2.6577    1.3890    0.3709 O   0  0  0  0  0  0  0  0  0  0  0  0
   -2.7670   -0.7982   -0.0530 O   0  0  0  0  0  0  0  0  0  0  0  0
   -0.2743    2.2273    0.4460 H   0  0  0  0  0  0  0  0  0  0  0  0
   -0.6794   -1.9953   -0.3651 H   0  0  0  0  0  0  0  0  0  0  0  0
    1.7526   -2.3049   -0.5163 H   0  0  0  0  0  0  0  0  0  0  0  0
   -3.7059   -0.5272    0.0350 H   0  0  0  0  0  0  0  0  0  0  0  0
  1  2  2  0
  2  3  1  0
  3  4  2  0
  4  5  1  0
  5  6  2  0
  6  7  1  0
  7  8  2  0
  4  9  1  0
  9 10  2  0
  9 11  1  0
  7  2  1  0
  3 12  1  0
  5 13  1  0
  6 14  1  0
 11 15  1  0
M  END

