
     RDKit          3D

 23 23  0  0  0  0  0  0  0  0999 V2000
   -0.8230    1.7407    0.1815 C   0  0  0  0  0  0  0  0  0  0  0  0
   -1.7669    0.5736   -0.0974 C   0  0  0  0  0  0  0  0  0  0  0  0
   -1.2005   -0.7420    0.4459 C   0  0  1  0  0  0  0  0  0  0  0  0
   -2.0926   -1.8455    0.0982 N   0  0  0  0  0  0  0  0  0  0  0  0
    0.2012   -1.0152   -0.1083 C   0  0  0  0  0  0  0  0  0  0  0  0
    1.1509    0.1548    0.1729 C   0  0  2  0  0  0  0  0  0  0  0  0
    0.5763    1.4715   -0.3647 C   0  0  0  0  0  0  0  0  0  0  0  0
    2.5102   -0.1216   -0.4292 C   0  0  0  0  0  0  0  0  0  0  0  0
    3.0480    0.4730   -1.3475 O   0  0  0  0  0  0  0  0  0  0  0  0
    3.1457   -1.1399    0.1846 O   0  0  0  0  0  0  0  0  0  0  0  0
   -1.2248    2.6551   -0.2695 H   0  0  0  0  0  0  0  0  0  0  0  0
   -0.7664    1.9157    1.2629 H   0  0  0  0  0  0  0  0  0  0  0  0
   -2.7430    0.7830    0.3574 H   0  0  0  0  0  0  0  0  0  0  0  0
   -1.9310    0.4965   -1.1805 H   0  0  0  0  0  0  0  0  0  0  0  0
   -1.1430   -0.6782    1.5399 H   0  0  0  0  0  0  0  0  0  0  0  0
   -1.7468   -2.7128    0.5075 H   0  0  0  0  0  0  0  0  0  0  0  0
   -3.0149   -1.6850    0.5019 H   0  0  0  0  0  0  0  0  0  0  0  0
    0.6020   -1.9355    0.3363 H   0  0  0  0  0  0  0  0  0  0  0  0
    0.1529   -1.1952   -1.1916 H   0  0  0  0  0  0  0  0  0  0  0  0
    1.2934    0.2646    1.2564 H   0  0  0  0  0  0  0  0  0  0  0  0
    0.5357    1.4448   -1.4616 H   0  0  0  0  0  0  0  0  0  0  0  0
    1.2384    2.3050   -0.0999 H   0  0  0  0  0  0  0  0  0  0  0  0
    3.9981   -1.2075   -0.2952 H   0  0  0  0  0  0  0  0  0  0  0  0
  1  2  1  0
  2  3  1  0
  3  4  1  0
  3  5  1  0
  5  6  1  0
  6  7  1  0
  6  8  1  0
  8  9  2  0
  8 10  1  0
  7  1  1  0
  1 11  1  0
  1 12  1  0
  2 13  1  0
  2 14  1  0
  3 15  1  1
  4 16  1  0
  4 17  1  0
  5 18  1  0
  5 19  1  0
  6 20  1  1
  7 21  1  0
  7 22  1  0
 10 23  1  0
M  END

