
     RDKit          3D

 19 19  0  0  0  0  0  0  0  0999 V2000
    3.0371    0.2197   -0.4396 O   0  0  0  0  0  0  0  0  0  0  0  0
    1.8655   -0.5071   -0.8162 C   0  0  0  0  0  0  0  0  0  0  0  0
    0.7476   -0.2404    0.1877 C   0  0  1  0  0  0  0  0  0  0  0  0
    0.4531    1.1784    0.2007 O   0  0  0  0  0  0  0  0  0  0  0  0
   -0.9605    1.3286    0.0865 C   0  0  2  0  0  0  0  0  0  0  0  0
   -1.5787   -0.0142    0.4132 C   0  0  0  0  0  0  0  0  0  0  0  0
   -0.5504   -0.9600   -0.1621 C   0  0  2  0  0  0  0  0  0  0  0  0
   -0.6289   -2.2476    0.4251 O   0  0  0  0  0  0  0  0  0  0  0  0
   -1.2586    1.6655   -1.2551 O   0  0  0  0  0  0  0  0  0  0  0  0
    2.7251    1.1166   -0.2118 H   0  0  0  0  0  0  0  0  0  0  0  0
    2.1188   -1.5703   -0.8586 H   0  0  0  0  0  0  0  0  0  0  0  0
    1.5852   -0.1679   -1.8188 H   0  0  0  0  0  0  0  0  0  0  0  0
    1.0941   -0.5005    1.1956 H   0  0  0  0  0  0  0  0  0  0  0  0
   -1.3172    2.1241    0.7477 H   0  0  0  0  0  0  0  0  0  0  0  0
   -2.5700   -0.1636   -0.0250 H   0  0  0  0  0  0  0  0  0  0  0  0
   -1.6572   -0.1585    1.4975 H   0  0  0  0  0  0  0  0  0  0  0  0
   -0.6749   -1.0568   -1.2473 H   0  0  0  0  0  0  0  0  0  0  0  0
   -1.4987   -2.6207    0.1973 H   0  0  0  0  0  0  0  0  0  0  0  0
   -0.9313    2.5747   -1.3647 H   0  0  0  0  0  0  0  0  0  0  0  0
  1  2  1  0
  2  3  1  0
  3  4  1  0
  4  5  1  0
  5  6  1  0
  6  7  1  0
  7  8  1  0
  5  9  1  0
  7  3  1  0
  1 10  1  0
  2 11  1  0
  2 12  1  0
  3 13  1  1
  5 14  1  1
  6 15  1  0
  6 16  1  0
  7 17  1  6
  8 18  1  0
  9 19  1  0
M  END

