REMARK  2 active torsions:
REMARK  status: ('A' for Active; 'I' for Inactive)
REMARK    1  A    between atoms: C_6  and  C_7 
REMARK    2  A    between atoms: C_7  and  O_9 
ROOT
ATOM      1  C   UNL d   1       2.520   0.662  -1.451  0.00  0.00     0.043 C 
ATOM      2  C   UNL d   1       1.363   0.147  -0.643  0.00  0.00    -0.080 C 
ATOM      3  C   UNL d   1       1.459  -0.986   0.071  0.00  0.00     0.053 C 
ATOM      4  C   UNL d   1       0.295  -1.522   0.818  0.00  0.00     0.164 C 
ATOM      5  O   UNL d   1       0.443  -2.526   1.513  0.00  0.00    -0.292 OA
ATOM      6  C   UNL d   1      -1.045  -0.836   0.672  0.00  0.00     0.161 C 
ATOM      7  C   UNL d   1      -0.885   0.677   0.441  0.00  0.00     0.007 C 
ATOM      8  C   UNL d   1      -0.460   1.387   1.735  0.00  0.00     0.011 C 
ATOM      9  C   UNL d   1       0.101   0.969  -0.704  0.00  0.00     0.039 C 
ENDROOT
BRANCH   6  10
ATOM     10  C   UNL d   1      -1.857  -1.458  -0.431  0.00  0.00     0.151 C 
ATOM     11  O   UNL d   1      -1.448  -2.105  -1.380  0.00  0.00    -0.649 OA
BRANCH  10  12
ATOM     12  O   UNL d   1      -3.176  -1.195  -0.312  0.00  0.00    -0.776 OA
ATOM     13  H   UNL d   1      -3.583  -1.662  -1.073  0.00  0.00     0.167 HD
ENDBRANCH  10  12
ENDBRANCH   6  10
TORSDOF 2
