REMARK  3 active torsions:
REMARK  status: ('A' for Active; 'I' for Inactive)
REMARK    1  A    between atoms: C_2  and  N_3 
REMARK    2  A    between atoms: C_2  and  S_4 
REMARK    3  A    between atoms: S_4  and  C_7 
ROOT
ATOM      1  S   UNL d   1      -0.677   0.821  -1.109  0.00  0.00     0.206 S 
ATOM      2  O   UNL d   1      -0.741   2.231  -0.764  0.00  0.00    -0.220 OA
ATOM      3  O   UNL d   1      -0.733   0.413  -2.502  0.00  0.00    -0.220 OA
ENDROOT
BRANCH   1   4
ATOM      4  C   UNL d   1      -2.013  -0.063  -0.208  0.00  0.00     0.339 C 
ATOM      5  C   UNL d   1      -1.977   0.265   1.282  0.00  0.00     0.060 C 
BRANCH   4   6
ATOM      6  N   UNL d   1      -3.397   0.191  -0.708  0.00  0.00     0.097 N 
ATOM      7  H   UNL d   1      -3.577   1.195  -0.628  0.00  0.00     0.314 HD
ATOM      8  H   UNL d   1      -3.393   0.013  -1.717  0.00  0.00     0.314 HD
ENDBRANCH   4   6
ENDBRANCH   1   4
BRANCH   1   9
ATOM      9  C   UNL d   1       0.824   0.153  -0.433  0.00  0.00     0.061 A 
ATOM     10  C   UNL d   1       1.256  -1.110  -0.849  0.00  0.00     0.023 A 
ATOM     11  C   UNL d   1       2.437  -1.635  -0.326  0.00  0.00     0.002 A 
ATOM     12  C   UNL d   1       3.182  -0.898   0.595  0.00  0.00     0.000 A 
ATOM     13  C   UNL d   1       2.756   0.371   0.991  0.00  0.00     0.002 A 
ATOM     14  C   UNL d   1       1.576   0.905   0.473  0.00  0.00     0.023 A 
ENDBRANCH   1   9
TORSDOF 3
