REMARK  1 active torsions:
REMARK  status: ('A' for Active; 'I' for Inactive)
REMARK    1  A    between atoms: C_7  and  C_8 
ROOT
ATOM      1  C   UNL d   1       0.651  -2.001  -1.601  0.00  0.00     0.012 C 
ATOM      2  C   UNL d   1       0.744  -1.070  -0.399  0.00  0.00     0.020 C 
ATOM      3  C   UNL d   1       2.170  -0.604  -0.123  0.00  0.00     0.277 C 
ATOM      4  N   UNL d   1       1.935   0.573   0.714  0.00  0.00     0.085 N 
ATOM      5  C   UNL d   1       3.140   1.364   0.916  0.00  0.00     0.309 C 
ATOM      6  C   UNL d   1       0.874   1.327   0.035  0.00  0.00     0.281 C 
ATOM      7  C   UNL d   1      -0.040   0.247  -0.583  0.00  0.00     0.054 C 
ENDROOT
BRANCH   7   8
ATOM      8  C   UNL d   1      -1.424   0.185   0.018  0.00  0.00    -0.034 A 
ATOM      9  C   UNL d   1      -2.559   0.162  -0.799  0.00  0.00     0.010 A 
ATOM     10  C   UNL d   1      -3.826   0.096  -0.226  0.00  0.00     0.020 A 
ATOM     11  C   UNL d   1      -3.921   0.050   1.154  0.00  0.00     0.116 A 
ATOM     12  N   UNL d   1      -2.853   0.064   1.979  0.00  0.00    -0.273 NA
ATOM     13  C   UNL d   1      -1.635   0.127   1.395  0.00  0.00     0.123 A 
ENDBRANCH   7   8
TORSDOF 1
