REMARK  8 active torsions:
REMARK  status: ('A' for Active; 'I' for Inactive)
REMARK    1  A    between atoms: O_2  and  C_3 
REMARK    2  A    between atoms: C_3  and  C_5 
REMARK    3  A    between atoms: C_5  and  C_6 
REMARK    4  A    between atoms: C_5  and  O_8 
REMARK    5  A    between atoms: C_6  and  O_7 
REMARK    6  A    between atoms: O_8  and  C_9 
REMARK    7  A    between atoms: C_9  and  C_10 
REMARK    8  A    between atoms: C_10  and  O_11 
ROOT
ATOM      1  C   UNL d   1       1.052  -0.071  -0.747  0.00  0.00     0.244 C 
ENDROOT
BRANCH   1   2
ATOM      2  C   UNL d   1       1.390   0.251   0.708  0.00  0.00     0.289 C 
ATOM      3  O   UNL d   1       0.718  -0.107   1.669  0.00  0.00    -0.262 OA
BRANCH   2   4
ATOM      4  O   UNL d   1       2.519   1.010   0.783  0.00  0.00    -0.324 OA
ATOM      5  C   UNL d   1       2.891   1.370   2.115  0.00  0.00     0.213 C 
ENDBRANCH   2   4
ENDBRANCH   1   2
BRANCH   1   6
ATOM      6  C   UNL d   1       2.113  -1.026  -1.295  0.00  0.00     0.206 C 
BRANCH   6   7
ATOM      7  O   UNL d   1       1.824  -1.347  -2.658  0.00  0.00    -0.398 OA
ATOM      8  H   UNL d   1       0.900  -1.665  -2.662  0.00  0.00     0.209 HD
ENDBRANCH   6   7
ENDBRANCH   1   6
BRANCH   1   9
ATOM      9  O   UNL d   1      -0.213  -0.745  -0.860  0.00  0.00    -0.371 OA
BRANCH   9  10
ATOM     10  C   UNL d   1      -1.334   0.150  -0.798  0.00  0.00     0.200 C 
BRANCH  10  11
ATOM     11  C   UNL d   1      -2.447  -0.525   0.012  0.00  0.00     0.138 C 
ATOM     12  C   UNL d   1      -3.777   0.191  -0.163  0.00  0.00     0.041 C 
BRANCH  11  13
ATOM     13  O   UNL d   1      -2.122  -0.494   1.405  0.00  0.00    -0.394 OA
ATOM     14  H   UNL d   1      -1.166  -0.693   1.495  0.00  0.00     0.210 HD
ENDBRANCH  11  13
ENDBRANCH  10  11
ENDBRANCH   9  10
ENDBRANCH   1   9
TORSDOF 8
