REMARK  3 active torsions:
REMARK  status: ('A' for Active; 'I' for Inactive)
REMARK    1  A    between atoms: C_2  and  O_4 
REMARK    2  A    between atoms: O_4  and  C_5 
REMARK    3  A    between atoms: C_8  and  O_9 
ROOT
ATOM      1  C   UNL d   1       0.551   1.154  -0.191  0.00  0.00     0.270 C 
ATOM      2  C   UNL d   1       0.181   0.928   1.278  0.00  0.00     0.064 C 
ATOM      3  C   UNL d   1      -0.595  -0.371   1.457  0.00  0.00     0.039 C 
ATOM      4  C   UNL d   1      -1.791  -0.418   0.510  0.00  0.00     0.147 C 
ATOM      5  C   UNL d   1      -1.337  -0.121  -0.931  0.00  0.00     0.149 C 
ATOM      6  C   UNL d   1      -2.524  -0.022  -1.885  0.00  0.00     0.042 C 
ATOM      7  O   UNL d   1      -0.633   1.125  -1.002  0.00  0.00    -0.353 OA
ENDROOT
BRANCH   1   8
ATOM      8  O   UNL d   1       1.488   0.175  -0.653  0.00  0.00    -0.290 OA
BRANCH   8   9
ATOM      9  C   UNL d   1       2.784   0.417  -0.330  0.00  0.00     0.257 C 
ATOM     10  C   UNL d   1       3.660  -0.665  -0.884  0.00  0.00     0.126 C 
ATOM     11  O   UNL d   1       3.192   1.366   0.324  0.00  0.00    -0.266 OA
ENDBRANCH   8   9
ENDBRANCH   1   8
BRANCH   4  12
ATOM     12  O   UNL d   1      -2.396  -1.703   0.622  0.00  0.00    -0.393 OA
ATOM     13  H   UNL d   1      -3.275  -1.654   0.210  0.00  0.00     0.210 HD
ENDBRANCH   4  12
TORSDOF 3
