REMARK  10 active torsions:
REMARK  status: ('A' for Active; 'I' for Inactive)
REMARK    1  A    between atoms: O_1  and  C_2 
REMARK    2  A    between atoms: C_2  and  C_3 
REMARK    3  A    between atoms: C_3  and  C_4 
REMARK    4  A    between atoms: C_3  and  C_6 
REMARK    5  A    between atoms: C_4  and  O_5 
REMARK    6  A    between atoms: C_6  and  O_7 
REMARK    7  A    between atoms: C_6  and  C_8 
REMARK    8  A    between atoms: C_8  and  O_9 
REMARK    9  A    between atoms: C_8  and  C_10 
REMARK   10  A    between atoms: C_10  and  O_11 
ROOT
ATOM      1  C   UNL d   1      -0.092  -0.524  -0.545  0.00  0.00     0.157 C 
ENDROOT
BRANCH   1   2
ATOM      2  C   UNL d   1      -0.873  -0.365   0.776  0.00  0.00     0.064 C 
BRANCH   2   3
ATOM      3  C   UNL d   1      -1.869  -1.517   0.979  0.00  0.00     0.173 C 
BRANCH   3   4
ATOM      4  O   UNL d   1      -2.827  -1.565  -0.071  0.00  0.00    -0.400 OA
ATOM      5  H   UNL d   1      -2.414  -2.078  -0.792  0.00  0.00     0.209 HD
ENDBRANCH   3   4
ENDBRANCH   2   3
BRANCH   2   6
ATOM      6  C   UNL d   1      -1.620   0.971   0.838  0.00  0.00     0.173 C 
BRANCH   6   7
ATOM      7  O   UNL d   1      -0.698   2.040   1.010  0.00  0.00    -0.400 OA
ATOM      8  H   UNL d   1      -1.223   2.858   1.067  0.00  0.00     0.209 HD
ENDBRANCH   6   7
ENDBRANCH   2   6
ENDBRANCH   1   2
BRANCH   1   9
ATOM      9  O   UNL d   1       0.470  -1.850  -0.600  0.00  0.00    -0.392 OA
ATOM     10  H   UNL d   1       1.067  -1.823  -1.380  0.00  0.00     0.210 HD
ENDBRANCH   1   9
BRANCH   1  11
ATOM     11  C   UNL d   1       1.046   0.481  -0.806  0.00  0.00     0.170 C 
BRANCH  11  12
ATOM     12  O   UNL d   1       1.706   0.060  -2.026  0.00  0.00    -0.391 OA
ATOM     13  H   UNL d   1       2.520   0.608  -2.049  0.00  0.00     0.210 HD
ENDBRANCH  11  12
BRANCH  11  14
ATOM     14  C   UNL d   1       2.115   0.533   0.291  0.00  0.00     0.198 C 
BRANCH  14  15
ATOM     15  O   UNL d   1       3.186   1.367  -0.171  0.00  0.00    -0.398 OA
ATOM     16  H   UNL d   1       3.813   1.443   0.571  0.00  0.00     0.209 HD
ENDBRANCH  14  15
ENDBRANCH  11  14
ENDBRANCH   1  11
TORSDOF 10
