
     RDKit          3D

 24 24  0  0  0  0  0  0  0  0999 V2000
   -2.8668   -1.2327   -0.7987 C   0  0  0  0  0  0  0  0  0  0  0  0
   -2.3769   -0.0714    0.0662 C   0  0  2  0  0  0  0  0  0  0  0  0
   -2.8768    1.1951   -0.4730 N   0  0  0  0  0  0  0  0  0  0  0  0
   -0.8634   -0.0584    0.1679 C   0  0  0  0  0  0  0  0  0  0  0  0
   -0.0618    0.2895   -0.9321 C   0  0  0  0  0  0  0  0  0  0  0  0
    1.3328    0.2861   -0.8356 C   0  0  0  0  0  0  0  0  0  0  0  0
    1.9478   -0.0606    0.3728 C   0  0  0  0  0  0  0  0  0  0  0  0
    1.1586   -0.4291    1.4683 C   0  0  0  0  0  0  0  0  0  0  0  0
   -0.2354   -0.4240    1.3676 C   0  0  0  0  0  0  0  0  0  0  0  0
    3.4287   -0.0754    0.5317 C   0  0  0  0  0  0  0  0  0  0  0  0
    3.9409   -0.8522    1.3306 O   0  0  0  0  0  0  0  0  0  0  0  0
    4.1154    0.8415   -0.2361 N   0  0  0  0  0  0  0  0  0  0  0  0
    5.8266    1.0251   -0.0552 Cl  0  0  0  0  0  0  0  0  0  0  0  0
   -3.9619   -1.2688   -0.8209 H   0  0  0  0  0  0  0  0  0  0  0  0
   -2.5140   -1.1525   -1.8335 H   0  0  0  0  0  0  0  0  0  0  0  0
   -2.5109   -2.1904   -0.4023 H   0  0  0  0  0  0  0  0  0  0  0  0
   -2.8028   -0.1906    1.0703 H   0  0  0  0  0  0  0  0  0  0  0  0
   -3.8952    1.1850   -0.4637 H   0  0  0  0  0  0  0  0  0  0  0  0
   -2.5928    1.9491    0.1514 H   0  0  0  0  0  0  0  0  0  0  0  0
   -0.5322    0.5617   -1.8763 H   0  0  0  0  0  0  0  0  0  0  0  0
    1.9131    0.5275   -1.7214 H   0  0  0  0  0  0  0  0  0  0  0  0
    1.6281   -0.7213    2.4063 H   0  0  0  0  0  0  0  0  0  0  0  0
   -0.8257   -0.7144    2.2344 H   0  0  0  0  0  0  0  0  0  0  0  0
    3.6246    1.5814   -0.7188 H   0  0  0  0  0  0  0  0  0  0  0  0
  1  2  1  0
  2  3  1  0
  2  4  1  0
  4  5  2  0
  5  6  1  0
  6  7  2  0
  7  8  1  0
  8  9  2  0
  7 10  1  0
 10 11  2  0
 10 12  1  0
 12 13  1  0
  9  4  1  0
  1 14  1  0
  1 15  1  0
  1 16  1  0
  2 17  1  1
  3 18  1  0
  3 19  1  0
  5 20  1  0
  6 21  1  0
  8 22  1  0
  9 23  1  0
 12 24  1  0
M  END

