
     RDKit          3D

 23 23  0  0  0  0  0  0  0  0999 V2000
   -1.9768    0.2648    1.2815 C   0  0  0  0  0  0  0  0  0  0  0  0
   -2.0132   -0.0626   -0.2082 C   0  0  1  0  0  0  0  0  0  0  0  0
   -3.3966    0.1911   -0.7084 N   0  0  0  0  0  0  0  0  0  0  0  0
   -0.6768    0.8212   -1.1089 S   0  0  0  0  0  0  0  0  0  0  0  0
   -0.7405    2.2305   -0.7643 O   0  0  0  0  0  0  0  0  0  0  0  0
   -0.7331    0.4126   -2.5022 O   0  0  0  0  0  0  0  0  0  0  0  0
    0.8239    0.1529   -0.4332 C   0  0  0  0  0  0  0  0  0  0  0  0
    1.2558   -1.1101   -0.8491 C   0  0  0  0  0  0  0  0  0  0  0  0
    2.4369   -1.6355   -0.3261 C   0  0  0  0  0  0  0  0  0  0  0  0
    3.1824   -0.8976    0.5953 C   0  0  0  0  0  0  0  0  0  0  0  0
    2.7556    0.3714    0.9912 C   0  0  0  0  0  0  0  0  0  0  0  0
    1.5761    0.9052    0.4731 C   0  0  0  0  0  0  0  0  0  0  0  0
   -1.0179   -0.0148    1.7279 H   0  0  0  0  0  0  0  0  0  0  0  0
   -2.1288    1.3344    1.4630 H   0  0  0  0  0  0  0  0  0  0  0  0
   -2.7561   -0.2839    1.8223 H   0  0  0  0  0  0  0  0  0  0  0  0
   -1.8098   -1.1292   -0.3549 H   0  0  0  0  0  0  0  0  0  0  0  0
   -3.5774    1.1953   -0.6281 H   0  0  0  0  0  0  0  0  0  0  0  0
   -3.3928    0.0131   -1.7172 H   0  0  0  0  0  0  0  0  0  0  0  0
    0.6917   -1.6820   -1.5827 H   0  0  0  0  0  0  0  0  0  0  0  0
    2.7844   -2.6162   -0.6431 H   0  0  0  0  0  0  0  0  0  0  0  0
    4.1062   -1.3078    0.9971 H   0  0  0  0  0  0  0  0  0  0  0  0
    3.3487    0.9472    1.6981 H   0  0  0  0  0  0  0  0  0  0  0  0
    1.2580    1.9002    0.7770 H   0  0  0  0  0  0  0  0  0  0  0  0
  1  2  1  0
  2  3  1  0
  2  4  1  0
  4  5  2  0
  4  6  2  0
  4  7  1  0
  7  8  2  0
  8  9  1  0
  9 10  2  0
 10 11  1  0
 11 12  2  0
 12  7  1  0
  1 13  1  0
  1 14  1  0
  1 15  1  0
  2 16  1  1
  3 17  1  0
  3 18  1  0
  8 19  1  0
  9 20  1  0
 10 21  1  0
 11 22  1  0
 12 23  1  0
M  END

