
     RDKit          3D

 32 32  0  0  0  0  0  0  0  0999 V2000
    2.3131   -1.5520   -0.3216 C   0  0  0  0  0  0  0  0  0  0  0  0
    1.4915   -0.2601   -0.2161 C   0  0  2  0  0  0  0  0  0  0  0  0
    2.4014    0.9779   -0.2099 C   0  0  0  0  0  0  0  0  0  0  0  0
    3.0335    1.2329   -1.5517 C   0  0  0  0  0  0  0  0  0  0  0  0
    2.8016    0.6723   -2.6086 O   0  0  0  0  0  0  0  0  0  0  0  0
    3.9480    2.2232   -1.4950 O   0  0  0  0  0  0  0  0  0  0  0  0
    0.7248   -0.2498    1.0472 N   0  0  0  0  0  0  0  0  0  0  0  0
   -0.5608   -0.9640    0.9623 C   0  0  1  0  0  0  0  0  0  0  0  0
   -1.1019   -1.1808    2.3813 C   0  0  0  0  0  0  0  0  0  0  0  0
   -1.5916   -0.2179    0.1300 C   0  0  0  0  0  0  0  0  0  0  0  0
   -1.8494    1.1474    0.3358 C   0  0  0  0  0  0  0  0  0  0  0  0
   -2.8062    1.8164   -0.4291 C   0  0  0  0  0  0  0  0  0  0  0  0
   -3.5201    1.1295   -1.4084 C   0  0  0  0  0  0  0  0  0  0  0  0
   -3.2778   -0.2257   -1.6236 C   0  0  0  0  0  0  0  0  0  0  0  0
   -2.3207   -0.8963   -0.8591 C   0  0  0  0  0  0  0  0  0  0  0  0
    3.0145   -1.6502    0.5148 H   0  0  0  0  0  0  0  0  0  0  0  0
    1.6684   -2.4367   -0.3245 H   0  0  0  0  0  0  0  0  0  0  0  0
    2.8968   -1.5781   -1.2469 H   0  0  0  0  0  0  0  0  0  0  0  0
    0.8207   -0.1941   -1.0809 H   0  0  0  0  0  0  0  0  0  0  0  0
    1.8148    1.8718    0.0367 H   0  0  0  0  0  0  0  0  0  0  0  0
    3.1963    0.8648    0.5371 H   0  0  0  0  0  0  0  0  0  0  0  0
    4.2644    2.3069   -2.4189 H   0  0  0  0  0  0  0  0  0  0  0  0
    1.2888   -0.6556    1.7925 H   0  0  0  0  0  0  0  0  0  0  0  0
   -0.3938   -1.9587    0.5314 H   0  0  0  0  0  0  0  0  0  0  0  0
   -0.4049   -1.7802    2.9781 H   0  0  0  0  0  0  0  0  0  0  0  0
   -2.0590   -1.7146    2.3568 H   0  0  0  0  0  0  0  0  0  0  0  0
   -1.2656   -0.2337    2.9086 H   0  0  0  0  0  0  0  0  0  0  0  0
   -1.2932    1.6956    1.0935 H   0  0  0  0  0  0  0  0  0  0  0  0
   -2.9910    2.8738   -0.2610 H   0  0  0  0  0  0  0  0  0  0  0  0
   -4.2637    1.6508   -2.0050 H   0  0  0  0  0  0  0  0  0  0  0  0
   -3.8334   -0.7612   -2.3888 H   0  0  0  0  0  0  0  0  0  0  0  0
   -2.1457   -1.9536   -1.0434 H   0  0  0  0  0  0  0  0  0  0  0  0
  1  2  1  0
  2  3  1  0
  3  4  1  0
  4  5  2  0
  4  6  1  0
  2  7  1  0
  7  8  1  0
  8  9  1  0
  8 10  1  0
 10 11  2  0
 11 12  1  0
 12 13  2  0
 13 14  1  0
 14 15  2  0
 15 10  1  0
  1 16  1  0
  1 17  1  0
  1 18  1  0
  2 19  1  6
  3 20  1  0
  3 21  1  0
  6 22  1  0
  7 23  1  0
  8 24  1  6
  9 25  1  0
  9 26  1  0
  9 27  1  0
 11 28  1  0
 12 29  1  0
 13 30  1  0
 14 31  1  0
 15 32  1  0
M  END

