
     RDKit          3D

 20 19  0  0  0  0  0  0  0  0999 V2000
   -1.6561   -1.1356   -0.3831 C   0  0  0  0  0  0  0  0  0  0  0  0
   -0.8207    0.1200   -0.6223 C   0  0  0  0  0  0  0  0  0  0  0  0
   -1.6644    1.3882   -0.4226 C   0  0  0  0  0  0  0  0  0  0  0  0
   -2.1526    1.4646    0.9160 O   0  0  0  0  0  0  0  0  0  0  0  0
    0.2644    0.1943    0.3204 O   0  0  0  0  0  0  0  0  0  0  0  0
    1.3360   -0.7115    0.0222 C   0  0  0  0  0  0  0  0  0  0  0  0
    2.4738   -0.4311    0.9992 C   0  0  0  0  0  0  0  0  0  0  0  0
    2.9388    0.9065    0.8256 O   0  0  0  0  0  0  0  0  0  0  0  0
   -1.9329   -1.2346    0.6719 H   0  0  0  0  0  0  0  0  0  0  0  0
   -1.0925   -2.0362   -0.6461 H   0  0  0  0  0  0  0  0  0  0  0  0
   -2.5670   -1.1255   -0.9898 H   0  0  0  0  0  0  0  0  0  0  0  0
   -0.4259    0.1248   -1.6453 H   0  0  0  0  0  0  0  0  0  0  0  0
   -1.0546    2.2810   -0.5959 H   0  0  0  0  0  0  0  0  0  0  0  0
   -2.5192    1.4106   -1.1052 H   0  0  0  0  0  0  0  0  0  0  0  0
   -1.3864    1.2484    1.4820 H   0  0  0  0  0  0  0  0  0  0  0  0
    1.0000   -1.7459    0.1351 H   0  0  0  0  0  0  0  0  0  0  0  0
    1.6765   -0.5368   -1.0043 H   0  0  0  0  0  0  0  0  0  0  0  0
    2.1343   -0.5320    2.0348 H   0  0  0  0  0  0  0  0  0  0  0  0
    3.3119   -1.1123    0.8290 H   0  0  0  0  0  0  0  0  0  0  0  0
    2.1369    1.4632    0.8403 H   0  0  0  0  0  0  0  0  0  0  0  0
  1  2  1  0
  2  3  1  0
  3  4  1  0
  2  5  1  0
  5  6  1  0
  6  7  1  0
  7  8  1  0
  1  9  1  0
  1 10  1  0
  1 11  1  0
  2 12  1  0
  3 13  1  0
  3 14  1  0
  4 15  1  0
  6 16  1  0
  6 17  1  0
  7 18  1  0
  7 19  1  0
  8 20  1  0
M  END

