
     RDKit          3D

 26 26  0  0  0  0  0  0  0  0999 V2000
    3.6596   -0.6653   -0.8842 C   0  0  0  0  0  0  0  0  0  0  0  0
    2.7845    0.4167   -0.3295 C   0  0  0  0  0  0  0  0  0  0  0  0
    3.1921    1.3662    0.3235 O   0  0  0  0  0  0  0  0  0  0  0  0
    1.4885    0.1749   -0.6534 O   0  0  0  0  0  0  0  0  0  0  0  0
    0.5510    1.1537   -0.1911 C   0  0  2  0  0  0  0  0  0  0  0  0
    0.1813    0.9283    1.2783 C   0  0  0  0  0  0  0  0  0  0  0  0
   -0.5946   -0.3714    1.4572 C   0  0  0  0  0  0  0  0  0  0  0  0
   -1.7912   -0.4185    0.5102 C   0  0  2  0  0  0  0  0  0  0  0  0
   -2.3955   -1.7034    0.6223 O   0  0  0  0  0  0  0  0  0  0  0  0
   -1.3373   -0.1213   -0.9310 C   0  0  1  0  0  0  0  0  0  0  0  0
   -2.5238   -0.0220   -1.8855 C   0  0  0  0  0  0  0  0  0  0  0  0
   -0.6334    1.1246   -1.0019 O   0  0  0  0  0  0  0  0  0  0  0  0
    3.3834   -1.6268   -0.4442 H   0  0  0  0  0  0  0  0  0  0  0  0
    3.5644   -0.6979   -1.9725 H   0  0  0  0  0  0  0  0  0  0  0  0
    4.7026   -0.4525   -0.6328 H   0  0  0  0  0  0  0  0  0  0  0  0
    0.9707    2.1587   -0.3175 H   0  0  0  0  0  0  0  0  0  0  0  0
    1.0738    0.9033    1.9118 H   0  0  0  0  0  0  0  0  0  0  0  0
   -0.4492    1.7587    1.6193 H   0  0  0  0  0  0  0  0  0  0  0  0
   -0.9342   -0.4722    2.4950 H   0  0  0  0  0  0  0  0  0  0  0  0
    0.0612   -1.2325    1.2740 H   0  0  0  0  0  0  0  0  0  0  0  0
   -2.5189    0.3345    0.8383 H   0  0  0  0  0  0  0  0  0  0  0  0
   -3.2749   -1.6542    0.2097 H   0  0  0  0  0  0  0  0  0  0  0  0
   -0.6911   -0.9287   -1.2986 H   0  0  0  0  0  0  0  0  0  0  0  0
   -2.1803    0.2379   -2.8929 H   0  0  0  0  0  0  0  0  0  0  0  0
   -3.0777   -0.9633   -1.9437 H   0  0  0  0  0  0  0  0  0  0  0  0
   -3.2109    0.7724   -1.5739 H   0  0  0  0  0  0  0  0  0  0  0  0
  1  2  1  0
  2  3  2  0
  2  4  1  0
  4  5  1  0
  5  6  1  0
  6  7  1  0
  7  8  1  0
  8  9  1  0
  8 10  1  0
 10 11  1  0
 10 12  1  0
 12  5  1  0
  1 13  1  0
  1 14  1  0
  1 15  1  0
  5 16  1  1
  6 17  1  0
  6 18  1  0
  7 19  1  0
  7 20  1  0
  8 21  1  1
  9 22  1  0
 10 23  1  6
 11 24  1  0
 11 25  1  0
 11 26  1  0
M  END

