
     RDKit          3D

 26 25  0  0  0  0  0  0  0  0999 V2000
    3.7741    0.4295   -0.1956 C   0  0  0  0  0  0  0  0  0  0  0  0
    2.5203    0.2094   -1.0189 C   0  0  0  0  0  0  0  0  0  0  0  0
    1.3855    0.4308   -0.1731 O   0  0  0  0  0  0  0  0  0  0  0  0
    0.1836    0.2933   -0.8002 C   0  0  0  0  0  0  0  0  0  0  0  0
    0.0376   -0.0631   -1.9625 O   0  0  0  0  0  0  0  0  0  0  0  0
   -0.9484    0.5671    0.1601 C   0  0  0  0  0  0  0  0  0  0  0  0
   -1.8269    1.6685   -0.4275 C   0  0  0  0  0  0  0  0  0  0  0  0
   -1.1136    2.9051   -0.4181 O   0  0  0  0  0  0  0  0  0  0  0  0
   -1.7238   -0.7331    0.3782 C   0  0  0  0  0  0  0  0  0  0  0  0
   -0.8745   -1.8284    1.0401 C   0  0  0  0  0  0  0  0  0  0  0  0
   -1.7222   -2.9521    1.2960 O   0  0  0  0  0  0  0  0  0  0  0  0
   -2.8519   -0.4856    1.2332 O   0  0  0  0  0  0  0  0  0  0  0  0
    3.7961    1.4469    0.2087 H   0  0  0  0  0  0  0  0  0  0  0  0
    3.7983   -0.2536    0.6599 H   0  0  0  0  0  0  0  0  0  0  0  0
    4.6711    0.2701   -0.8005 H   0  0  0  0  0  0  0  0  0  0  0  0
    2.5024   -0.8186   -1.3979 H   0  0  0  0  0  0  0  0  0  0  0  0
    2.4999    0.9135   -1.8583 H   0  0  0  0  0  0  0  0  0  0  0  0
   -0.5408    0.9276    1.1137 H   0  0  0  0  0  0  0  0  0  0  0  0
   -2.7325    1.8135    0.1697 H   0  0  0  0  0  0  0  0  0  0  0  0
   -2.1226    1.4511   -1.4596 H   0  0  0  0  0  0  0  0  0  0  0  0
   -1.7202    3.5816   -0.7677 H   0  0  0  0  0  0  0  0  0  0  0  0
   -2.1314   -1.1136   -0.5666 H   0  0  0  0  0  0  0  0  0  0  0  0
   -0.0511   -2.1520    0.3972 H   0  0  0  0  0  0  0  0  0  0  0  0
   -0.4801   -1.4889    2.0033 H   0  0  0  0  0  0  0  0  0  0  0  0
   -1.1619   -3.6415    1.6955 H   0  0  0  0  0  0  0  0  0  0  0  0
   -3.1671   -1.3775    1.4907 H   0  0  0  0  0  0  0  0  0  0  0  0
  1  2  1  0
  2  3  1  0
  3  4  1  0
  4  5  2  0
  4  6  1  0
  6  7  1  0
  7  8  1  0
  6  9  1  0
  9 10  1  0
 10 11  1  0
  9 12  1  0
  1 13  1  0
  1 14  1  0
  1 15  1  0
  2 16  1  0
  2 17  1  0
  6 18  1  0
  7 19  1  0
  7 20  1  0
  8 21  1  0
  9 22  1  0
 10 23  1  0
 10 24  1  0
 11 25  1  0
 12 26  1  0
M  END

