
     RDKit          3D

 31 31  0  0  0  0  0  0  0  0999 V2000
    1.8520   -0.3356   -2.9655 O   0  0  0  0  0  0  0  0  0  0  0  0
    2.6369    0.2044   -1.8995 C   0  0  0  0  0  0  0  0  0  0  0  0
    2.0466   -0.2317   -0.5573 C   0  0  0  0  0  0  0  0  0  0  0  0
    0.7489    0.3806   -0.4750 O   0  0  0  0  0  0  0  0  0  0  0  0
   -0.2331   -0.4463    0.1540 C   0  0  0  0  0  0  0  0  0  0  0  0
   -1.3979   -0.7468   -0.8133 C   0  0  2  0  0  0  0  0  0  0  0  0
   -1.0590   -0.5739   -2.1883 O   0  0  0  0  0  0  0  0  0  0  0  0
   -2.5190    0.1907   -0.3644 C   0  0  1  0  0  0  0  0  0  0  0  0
   -3.7927   -0.2909   -0.7813 O   0  0  0  0  0  0  0  0  0  0  0  0
   -2.3615    0.1624    1.1519 C   0  0  2  0  0  0  0  0  0  0  0  0
   -3.1150    1.2008    1.7692 O   0  0  0  0  0  0  0  0  0  0  0  0
   -0.8568    0.3596    1.3097 C   0  0  1  0  0  0  0  0  0  0  0  0
   -0.4065   -0.0980    2.5831 O   0  0  0  0  0  0  0  0  0  0  0  0
    2.9036    0.2465    0.6190 C   0  0  0  0  0  0  0  0  0  0  0  0
    2.3554   -0.2101    1.8641 O   0  0  0  0  0  0  0  0  0  0  0  0
    0.9097   -0.2187   -2.7047 H   0  0  0  0  0  0  0  0  0  0  0  0
    2.6264    1.2942   -2.0049 H   0  0  0  0  0  0  0  0  0  0  0  0
    3.6628   -0.1555   -2.0206 H   0  0  0  0  0  0  0  0  0  0  0  0
    1.9502   -1.3244   -0.5539 H   0  0  0  0  0  0  0  0  0  0  0  0
    0.1933   -1.3869    0.5234 H   0  0  0  0  0  0  0  0  0  0  0  0
   -1.7195   -1.7886   -0.6880 H   0  0  0  0  0  0  0  0  0  0  0  0
   -1.9032   -0.6376   -2.6760 H   0  0  0  0  0  0  0  0  0  0  0  0
   -2.3998    1.1992   -0.7782 H   0  0  0  0  0  0  0  0  0  0  0  0
   -4.4459    0.2431   -0.2878 H   0  0  0  0  0  0  0  0  0  0  0  0
   -2.7044   -0.7866    1.5815 H   0  0  0  0  0  0  0  0  0  0  0  0
   -2.8101    1.2310    2.6968 H   0  0  0  0  0  0  0  0  0  0  0  0
   -0.5976    1.4240    1.2493 H   0  0  0  0  0  0  0  0  0  0  0  0
    0.5742   -0.1391    2.5131 H   0  0  0  0  0  0  0  0  0  0  0  0
    3.9242   -0.1403    0.5347 H   0  0  0  0  0  0  0  0  0  0  0  0
    2.9322    1.3402    0.6599 H   0  0  0  0  0  0  0  0  0  0  0  0
    3.0059    0.0345    2.5490 H   0  0  0  0  0  0  0  0  0  0  0  0
  1  2  1  0
  2  3  1  0
  3  4  1  0
  4  5  1  0
  5  6  1  0
  6  7  1  0
  6  8  1  0
  8  9  1  0
  8 10  1  0
 10 11  1  0
 10 12  1  0
 12 13  1  0
  3 14  1  0
 14 15  1  0
 12  5  1  0
  1 16  1  0
  2 17  1  0
  2 18  1  0
  3 19  1  0
  5 20  1  0
  6 21  1  6
  7 22  1  0
  8 23  1  6
  9 24  1  0
 10 25  1  1
 11 26  1  0
 12 27  1  6
 13 28  1  0
 14 29  1  0
 14 30  1  0
 15 31  1  0
M  END

