
     RDKit          3D

 20 20  0  0  0  0  0  0  0  0999 V2000
    1.2207   -0.1921    1.0197 C   0  0  0  0  0  0  0  0  0  0  0  0
    0.9840    1.0361    0.1285 C   0  0  0  0  0  0  0  0  0  0  0  0
   -0.0306    0.7417   -0.9878 C   0  0  0  0  0  0  0  0  0  0  0  0
   -1.0785   -0.2471   -0.4980 C   0  0  0  0  0  0  0  0  0  0  0  0
   -0.3826   -1.5674   -0.0985 C   0  0  0  0  0  0  0  0  0  0  0  0
    0.9680   -1.4145    0.3210 O   0  0  0  0  0  0  0  0  0  0  0  0
   -1.1326   -2.1775    0.9457 O   0  0  0  0  0  0  0  0  0  0  0  0
   -1.7581    0.3466    0.6319 O   0  0  0  0  0  0  0  0  0  0  0  0
   -0.6494    1.9743   -1.3875 O   0  0  0  0  0  0  0  0  0  0  0  0
    2.2141    1.4605   -0.4778 O   0  0  0  0  0  0  0  0  0  0  0  0
    2.2579   -0.2215    1.3693 H   0  0  0  0  0  0  0  0  0  0  0  0
    0.5751   -0.1614    1.9052 H   0  0  0  0  0  0  0  0  0  0  0  0
    0.6635    1.8760    0.7559 H   0  0  0  0  0  0  0  0  0  0  0  0
    0.4779    0.3476   -1.8756 H   0  0  0  0  0  0  0  0  0  0  0  0
   -1.8568   -0.4291   -1.2462 H   0  0  0  0  0  0  0  0  0  0  0  0
   -0.3718   -2.2447   -0.9594 H   0  0  0  0  0  0  0  0  0  0  0  0
   -0.7103   -3.0467    1.0674 H   0  0  0  0  0  0  0  0  0  0  0  0
   -2.0320   -0.4214    1.1809 H   0  0  0  0  0  0  0  0  0  0  0  0
   -1.3345    2.1527   -0.7106 H   0  0  0  0  0  0  0  0  0  0  0  0
    1.9760    2.1878   -1.0841 H   0  0  0  0  0  0  0  0  0  0  0  0
  1  2  1  0
  2  3  1  0
  3  4  1  0
  4  5  1  0
  5  6  1  0
  5  7  1  0
  4  8  1  0
  3  9  1  0
  2 10  1  0
  6  1  1  0
  1 11  1  0
  1 12  1  0
  2 13  1  0
  3 14  1  0
  4 15  1  0
  5 16  1  0
  7 17  1  0
  8 18  1  0
  9 19  1  0
 10 20  1  0
M  END

