@<TRIPOS>MOLECULE
*****
 24 24 0 0 0
SMALL
GASTEIGER

@<TRIPOS>ATOM
      1 C           2.5204    0.6616   -1.4510 C.3     1  UNL1       -0.0434
      2 C           1.3634    0.1470   -0.6434 C.2     1  UNL1       -0.0690
      3 C           1.4591   -0.9859    0.0708 C.2     1  UNL1       -0.0194
      4 C           0.2947   -1.5223    0.8180 C.2     1  UNL1        0.1700
      5 O           0.4431   -2.5263    1.5134 O.2     1  UNL1       -0.2918
      6 C          -1.0449   -0.8362    0.6722 C.3     1  UNL1        0.1210
      7 C          -1.8572   -1.4585   -0.4311 C.2     1  UNL1        0.3157
      8 O          -1.4480   -2.1053   -1.3799 O.2     1  UNL1       -0.2502
      9 O          -3.1758   -1.1952   -0.3119 O.3     1  UNL1       -0.4801
     10 C          -0.8852    0.6770    0.4413 C.3     1  UNL1       -0.0201
     11 C          -0.4597    1.3869    1.7347 C.3     1  UNL1       -0.0610
     12 C           0.1012    0.9694   -0.7036 C.3     1  UNL1       -0.0279
     13 H           3.3941    0.0047   -1.3846 H       1  UNL1        0.0274
     14 H           2.8204    1.6528   -1.0961 H       1  UNL1        0.0274
     15 H           2.2407    0.7389   -2.5067 H       1  UNL1        0.0274
     16 H           2.3653   -1.5792    0.1216 H       1  UNL1        0.0652
     17 H          -1.5852   -1.0087    1.6130 H       1  UNL1        0.0498
     18 H          -3.5828   -1.6621   -1.0728 H       1  UNL1        0.2951
     19 H          -1.8553    1.1060    0.1558 H       1  UNL1        0.0313
     20 H          -1.1941    1.2134    2.5285 H       1  UNL1        0.0233
     21 H          -0.3947    2.4688    1.5764 H       1  UNL1        0.0233
     22 H           0.5143    1.0426    2.0963 H       1  UNL1        0.0233
     23 H          -0.3872    0.7736   -1.6668 H       1  UNL1        0.0313
     24 H           0.3536    2.0372   -0.6943 H       1  UNL1        0.0313
@<TRIPOS>BOND
     1     1     2    1
     2     2     3    2
     3     3     4    1
     4     4     5    2
     5     4     6    1
     6     6     7    1
     7     7     8    2
     8     7     9    1
     9     6    10    1
    10    10    11    1
    11    10    12    1
    12    12     2    1
    13     1    13    1
    14     1    14    1
    15     1    15    1
    16     3    16    1
    17     6    17    1
    18     9    18    1
    19    10    19    1
    20    11    20    1
    21    11    21    1
    22    11    22    1
    23    12    23    1
    24    12    24    1
