@<TRIPOS>MOLECULE
*****
 25 25 0 0 0
SMALL
GASTEIGER

@<TRIPOS>ATOM
      1 C           3.0332   -0.3591   -0.1578 C.3     1  UNL1       -0.0623
      2 C           1.6010    0.0328    0.2033 C.3     1  UNL1       -0.0415
      3 C           0.7947   -1.2014    0.6309 C.3     1  UNL1       -0.0495
      4 C          -0.6677   -0.8626    0.9186 C.3     1  UNL1       -0.0375
      5 C          -1.3155   -0.1576   -0.2757 C.3     1  UNL1        0.0821
      6 C          -0.5361    1.1048   -0.6726 C.3     1  UNL1        0.0684
      7 C           0.9249    0.7567   -0.9750 C.3     1  UNL1       -0.0235
      8 O          -0.5395    2.0741    0.3780 O.3     1  UNL1       -0.3910
      9 C          -2.7554    0.1773    0.0221 C.2     1  UNL1        0.3103
     10 O          -3.2185    1.2898    0.2183 O.2     1  UNL1       -0.2506
     11 O          -3.5484   -0.9110    0.0515 O.3     1  UNL1       -0.4804
     12 H           3.6211    0.5246   -0.4272 H       1  UNL1        0.0232
     13 H           3.0552   -1.0521   -1.0057 H       1  UNL1        0.0232
     14 H           3.5279   -0.8451    0.6897 H       1  UNL1        0.0232
     15 H           1.6502    0.7229    1.0559 H       1  UNL1        0.0299
     16 H           1.2441   -1.6489    1.5255 H       1  UNL1        0.0268
     17 H           0.8361   -1.9634   -0.1581 H       1  UNL1        0.0268
     18 H          -0.7323   -0.2321    1.8146 H       1  UNL1        0.0274
     19 H          -1.2107   -1.7858    1.1546 H       1  UNL1        0.0274
     20 H          -1.3180   -0.8334   -1.1420 H       1  UNL1        0.0439
     21 H          -0.9874    1.5763   -1.5535 H       1  UNL1        0.0601
     22 H           0.9695    0.1280   -1.8733 H       1  UNL1        0.0293
     23 H           1.4820    1.6768   -1.1916 H       1  UNL1        0.0293
     24 H          -1.4702    2.3495    0.5086 H       1  UNL1        0.2098
     25 H          -4.4401   -0.5611    0.2609 H       1  UNL1        0.2951
@<TRIPOS>BOND
     1     1     2    1
     2     2     3    1
     3     3     4    1
     4     4     5    1
     5     5     6    1
     6     6     7    1
     7     6     8    1
     8     5     9    1
     9     9    10    2
    10     9    11    1
    11     7     2    1
    12     1    12    1
    13     1    13    1
    14     1    14    1
    15     2    15    1
    16     3    16    1
    17     3    17    1
    18     4    18    1
    19     4    19    1
    20     5    20    1
    21     6    21    1
    22     7    22    1
    23     7    23    1
    24     8    24    1
    25    11    25    1
