@<TRIPOS>MOLECULE
*****
 29 30 0 0 0
SMALL
GASTEIGER

@<TRIPOS>ATOM
      1 C           0.6513   -2.0006   -1.6006 C.3     1  UNL1       -0.0607
      2 C           0.7436   -1.0704   -0.3989 C.3     1  UNL1       -0.0231
      3 C           2.1699   -0.6040   -0.1232 C.3     1  UNL1        0.0018
      4 N           1.9354    0.5732    0.7137 N.3     1  UNL1       -0.3045
      5 C           3.1403    1.3642    0.9160 C.3     1  UNL1       -0.0127
      6 C           0.8737    1.3272    0.0349 C.3     1  UNL1        0.0058
      7 C          -0.0400    0.2470   -0.5832 C.3     1  UNL1        0.0021
      8 C          -1.4243    0.1848    0.0180 C.ar    1  UNL1       -0.0247
      9 C          -2.5589    0.1624   -0.7991 C.ar    1  UNL1       -0.0554
     10 C          -3.8258    0.0961   -0.2261 C.ar    1  UNL1       -0.0433
     11 C          -3.9205    0.0504    1.1540 C.ar    1  UNL1        0.0276
     12 N          -2.8535    0.0638    1.9789 N.ar    1  UNL1       -0.2630
     13 C          -1.6345    0.1268    1.3952 C.ar    1  UNL1        0.0310
     14 H           1.2490   -2.9030   -1.4356 H       1  UNL1        0.0233
     15 H          -0.3850   -2.3078   -1.7743 H       1  UNL1        0.0233
     16 H           1.0179   -1.5162   -2.5118 H       1  UNL1        0.0233
     17 H           0.3803   -1.6188    0.4815 H       1  UNL1        0.0317
     18 H           2.7467   -1.3707    0.4044 H       1  UNL1        0.0429
     19 H           2.6918   -0.3463   -1.0540 H       1  UNL1        0.0429
     20 H           2.9239    2.2343    1.5454 H       1  UNL1        0.0391
     21 H           3.9006    0.7733    1.4380 H       1  UNL1        0.0391
     22 H           3.5708    1.7203   -0.0268 H       1  UNL1        0.0391
     23 H           1.2896    1.9384   -0.7777 H       1  UNL1        0.0432
     24 H           0.3584    2.0023    0.7260 H       1  UNL1        0.0432
     25 H          -0.1314    0.4760   -1.6542 H       1  UNL1        0.0365
     26 H          -2.4649    0.1947   -1.8815 H       1  UNL1        0.0621
     27 H          -4.7180    0.0790   -0.8415 H       1  UNL1        0.0633
     28 H          -4.8863   -0.0016    1.6479 H       1  UNL1        0.0829
     29 H          -0.8001    0.1253    2.0935 H       1  UNL1        0.0832
@<TRIPOS>BOND
     1     1     2    1
     2     2     3    1
     3     3     4    1
     4     4     5    1
     5     4     6    1
     6     6     7    1
     7     7     8    1
     8     8     9   ar
     9     9    10   ar
    10    10    11   ar
    11    11    12   ar
    12    12    13   ar
    13     7     2    1
    14    13     8   ar
    15     1    14    1
    16     1    15    1
    17     1    16    1
    18     2    17    1
    19     3    18    1
    20     3    19    1
    21     5    20    1
    22     5    21    1
    23     5    22    1
    24     6    23    1
    25     6    24    1
    26     7    25    1
    27     9    26    1
    28    10    27    1
    29    11    28    1
    30    13    29    1
