@<TRIPOS>MOLECULE
*****
 25 25 0 0 0
SMALL
GASTEIGER

@<TRIPOS>ATOM
      1 C          -1.1386   -1.9857    0.2957 C.3     1  UNL1       -0.0423
      2 C          -0.6896   -0.7528   -0.5013 C.3     1  UNL1        0.0478
      3 C           0.7029   -0.2351   -0.1628 C.ar    1  UNL1       -0.0273
      4 C           1.3336   -0.4723    1.0682 C.ar    1  UNL1       -0.0568
      5 C           2.6065    0.0425    1.3290 C.ar    1  UNL1       -0.0614
      6 C           3.2652    0.8051    0.3674 C.ar    1  UNL1       -0.0617
      7 C           2.6520    1.0575   -0.8564 C.ar    1  UNL1       -0.0614
      8 C           1.3808    0.5438   -1.1183 C.ar    1  UNL1       -0.0568
      9 N          -1.7089    0.3089   -0.4321 N.am    1  UNL1       -0.3003
     10 C          -1.7692    1.1786    0.7317 C.3     1  UNL1        0.0035
     11 C          -2.7502    0.2971   -1.3405 C.2     1  UNL1        0.2027
     12 O          -2.8915   -0.4978   -2.2608 O.2     1  UNL1       -0.2793
     13 H          -1.2943   -1.7570    1.3553 H       1  UNL1        0.0251
     14 H          -0.3991   -2.7908    0.2258 H       1  UNL1        0.0251
     15 H          -2.0893   -2.3699   -0.0906 H       1  UNL1        0.0251
     16 H          -0.6382   -1.0932   -1.5453 H       1  UNL1        0.0547
     17 H           0.8474   -1.0565    1.8448 H       1  UNL1        0.0621
     18 H           3.0844   -0.1526    2.2857 H       1  UNL1        0.0618
     19 H           4.2554    1.2033    0.5723 H       1  UNL1        0.0618
     20 H           3.1614    1.6543   -1.6085 H       1  UNL1        0.0618
     21 H           0.9117    0.7548   -2.0782 H       1  UNL1        0.0621
     22 H          -0.8614    1.7845    0.7873 H       1  UNL1        0.0429
     23 H          -1.8676    0.5695    1.6342 H       1  UNL1        0.0429
     24 H          -2.6290    1.8523    0.6721 H       1  UNL1        0.0429
     25 H          -3.4746    1.1115   -1.1749 H       1  UNL1        0.1253
@<TRIPOS>BOND
     1     1     2    1
     2     2     3    1
     3     3     4   ar
     4     4     5   ar
     5     5     6   ar
     6     6     7   ar
     7     7     8   ar
     8     2     9    1
     9     9    10    1
    10     9    11   am
    11    11    12    2
    12     8     3   ar
    13     1    13    1
    14     1    14    1
    15     1    15    1
    16     2    16    1
    17     4    17    1
    18     5    18    1
    19     6    19    1
    20     7    20    1
    21     8    21    1
    22    10    22    1
    23    10    23    1
    24    10    24    1
    25    11    25    1
