@<TRIPOS>MOLECULE
*****
 32 32 0 0 0
SMALL
GASTEIGER

@<TRIPOS>ATOM
      1 C           2.3131   -1.5520   -0.3216 C.3     1  UNL1       -0.0492
      2 C           1.4915   -0.2601   -0.2161 C.3     1  UNL1        0.0154
      3 C           2.4014    0.9779   -0.2099 C.3     1  UNL1        0.0599
      4 C           3.0335    1.2329   -1.5517 C.2     1  UNL1        0.3062
      5 O           2.8016    0.6723   -2.6086 O.2     1  UNL1       -0.2510
      6 O           3.9480    2.2232   -1.4950 O.3     1  UNL1       -0.4806
      7 N           0.7248   -0.2498    1.0472 N.3     1  UNL1       -0.3066
      8 C          -0.5608   -0.9640    0.9623 C.3     1  UNL1        0.0303
      9 C          -1.1019   -1.1808    2.3813 C.3     1  UNL1       -0.0455
     10 C          -1.5916   -0.2179    0.1300 C.ar    1  UNL1       -0.0307
     11 C          -1.8494    1.1474    0.3358 C.ar    1  UNL1       -0.0571
     12 C          -2.8062    1.8164   -0.4291 C.ar    1  UNL1       -0.0615
     13 C          -3.5201    1.1295   -1.4084 C.ar    1  UNL1       -0.0617
     14 C          -3.2778   -0.2257   -1.6236 C.ar    1  UNL1       -0.0615
     15 C          -2.3207   -0.8963   -0.8591 C.ar    1  UNL1       -0.0571
     16 H           3.0145   -1.6502    0.5148 H       1  UNL1        0.0245
     17 H           1.6684   -2.4367   -0.3245 H       1  UNL1        0.0245
     18 H           2.8968   -1.5781   -1.2469 H       1  UNL1        0.0245
     19 H           0.8207   -0.1941   -1.0809 H       1  UNL1        0.0463
     20 H           1.8148    1.8718    0.0367 H       1  UNL1        0.0393
     21 H           3.1963    0.8648    0.5371 H       1  UNL1        0.0393
     22 H           4.2644    2.3069   -2.4189 H       1  UNL1        0.2951
     23 H           1.2888   -0.6556    1.7925 H       1  UNL1        0.1228
     24 H          -0.3938   -1.9587    0.5314 H       1  UNL1        0.0507
     25 H          -0.4049   -1.7802    2.9781 H       1  UNL1        0.0248
     26 H          -2.0590   -1.7146    2.3568 H       1  UNL1        0.0248
     27 H          -1.2656   -0.2337    2.9086 H       1  UNL1        0.0248
     28 H          -1.2932    1.6956    1.0935 H       1  UNL1        0.0621
     29 H          -2.9910    2.8738   -0.2610 H       1  UNL1        0.0618
     30 H          -4.2637    1.6508   -2.0050 H       1  UNL1        0.0618
     31 H          -3.8334   -0.7612   -2.3888 H       1  UNL1        0.0618
     32 H          -2.1457   -1.9536   -1.0434 H       1  UNL1        0.0621
@<TRIPOS>BOND
     1     1     2    1
     2     2     3    1
     3     3     4    1
     4     4     5    2
     5     4     6    1
     6     2     7    1
     7     7     8    1
     8     8     9    1
     9     8    10    1
    10    10    11   ar
    11    11    12   ar
    12    12    13   ar
    13    13    14   ar
    14    14    15   ar
    15    15    10   ar
    16     1    16    1
    17     1    17    1
    18     1    18    1
    19     2    19    1
    20     3    20    1
    21     3    21    1
    22     6    22    1
    23     7    23    1
    24     8    24    1
    25     9    25    1
    26     9    26    1
    27     9    27    1
    28    11    28    1
    29    12    29    1
    30    13    30    1
    31    14    31    1
    32    15    32    1
