@<TRIPOS>MOLECULE
*****
 15 15 0 0 0
SMALL
GASTEIGER

@<TRIPOS>ATOM
      1 O           2.3007    2.1589    0.3366 O.2     1  UNL1       -0.2838
      2 C           1.6116    1.1640    0.1677 C.2     1  UNL1        0.2260
      3 C           0.1375    1.2454    0.2385 C.2     1  UNL1        0.0029
      4 C          -0.6099    0.1470    0.0515 C.2     1  UNL1        0.0627
      5 C          -0.0131   -1.1465   -0.2238 C.2     1  UNL1       -0.0439
      6 C           1.3085   -1.3388   -0.3107 C.2     1  UNL1       -0.0103
      7 C           2.2346   -0.2020   -0.1228 C.2     1  UNL1        0.2253
      8 O           3.4434   -0.3592   -0.1987 O.2     1  UNL1       -0.2838
      9 C          -2.0814    0.3405    0.1442 C.2     1  UNL1        0.3369
     10 O          -2.6577    1.3890    0.3709 O.2     1  UNL1       -0.2451
     11 O          -2.7670   -0.7982   -0.0530 O.3     1  UNL1       -0.4771
     12 H          -0.2743    2.2273    0.4460 H       1  UNL1        0.0665
     13 H          -0.6794   -1.9953   -0.3651 H       1  UNL1        0.0627
     14 H           1.7526   -2.3049   -0.5163 H       1  UNL1        0.0657
     15 H          -3.7059   -0.5272    0.0350 H       1  UNL1        0.2954
@<TRIPOS>BOND
     1     1     2    2
     2     2     3    1
     3     3     4    2
     4     4     5    1
     5     5     6    2
     6     6     7    1
     7     7     8    2
     8     4     9    1
     9     9    10    2
    10     9    11    1
    11     7     2    1
    12     3    12    1
    13     5    13    1
    14     6    14    1
    15    11    15    1
