@<TRIPOS>MOLECULE
*****
 23 23 0 0 0
SMALL
GASTEIGER

@<TRIPOS>ATOM
      1 C          -0.8230    1.7407    0.1815 C.3     1  UNL1       -0.0509
      2 C          -1.7669    0.5736   -0.0974 C.3     1  UNL1       -0.0377
      3 C          -1.2005   -0.7420    0.4459 C.3     1  UNL1        0.0056
      4 N          -2.0926   -1.8455    0.0982 N.3     1  UNL1       -0.3272
      5 C           0.2012   -1.0152   -0.1083 C.3     1  UNL1       -0.0248
      6 C           1.1509    0.1548    0.1729 C.3     1  UNL1        0.0577
      7 C           0.5763    1.4715   -0.3647 C.3     1  UNL1       -0.0400
      8 C           2.5102   -0.1216   -0.4292 C.2     1  UNL1        0.3079
      9 O           3.0480    0.4730   -1.3475 O.2     1  UNL1       -0.2507
     10 O           3.1457   -1.1399    0.1846 O.3     1  UNL1       -0.4804
     11 H          -1.2248    2.6551   -0.2695 H       1  UNL1        0.0266
     12 H          -0.7664    1.9157    1.2629 H       1  UNL1        0.0266
     13 H          -2.7430    0.7830    0.3574 H       1  UNL1        0.0280
     14 H          -1.9310    0.4965   -1.1805 H       1  UNL1        0.0280
     15 H          -1.1430   -0.6782    1.5399 H       1  UNL1        0.0458
     16 H          -1.7468   -2.7128    0.5075 H       1  UNL1        0.1185
     17 H          -3.0149   -1.6850    0.5019 H       1  UNL1        0.1185
     18 H           0.6020   -1.9355    0.3363 H       1  UNL1        0.0288
     19 H           0.1529   -1.1952   -1.1916 H       1  UNL1        0.0288
     20 H           1.2934    0.2646    1.2564 H       1  UNL1        0.0414
     21 H           0.5357    1.4448   -1.4616 H       1  UNL1        0.0273
     22 H           1.2384    2.3050   -0.0999 H       1  UNL1        0.0273
     23 H           3.9981   -1.2075   -0.2952 H       1  UNL1        0.2951
@<TRIPOS>BOND
     1     1     2    1
     2     2     3    1
     3     3     4    1
     4     3     5    1
     5     5     6    1
     6     6     7    1
     7     6     8    1
     8     8     9    2
     9     8    10    1
    10     7     1    1
    11     1    11    1
    12     1    12    1
    13     2    13    1
    14     2    14    1
    15     3    15    1
    16     4    16    1
    17     4    17    1
    18     5    18    1
    19     5    19    1
    20     6    20    1
    21     7    21    1
    22     7    22    1
    23    10    23    1
