@<TRIPOS>MOLECULE
*****
 45 46 0 0 0
SMALL
GASTEIGER

@<TRIPOS>ATOM
      1 O          -3.7894    0.2461   -3.2128 O.3     1  UNL1       -0.3924
      2 C          -2.4785    0.3733   -2.6667 C.3     1  UNL1        0.0730
      3 C          -2.4618    0.0256   -1.1712 C.3     1  UNL1        0.1130
      4 O          -1.1265    0.2253   -0.6966 O.3     1  UNL1       -0.3405
      5 C          -0.9859   -0.1382    0.6775 C.3     1  UNL1        0.1884
      6 O           0.3770    0.0670    1.0901 O.3     1  UNL1       -0.3401
      7 C           1.3009   -0.7659    0.3386 C.3     1  UNL1        0.1184
      8 C           2.0681    0.1379   -0.6450 C.3     1  UNL1        0.1134
      9 C           2.8484   -0.6490   -1.7097 C.3     1  UNL1        0.0730
     10 O           1.9595   -1.4209   -2.5124 O.3     1  UNL1       -0.3924
     11 O           2.8936    1.0981    0.0427 O.3     1  UNL1       -0.3407
     12 C           3.8041    0.5756    1.0049 C.3     1  UNL1        0.1854
     13 O           4.8667   -0.0917    0.3472 O.3     1  UNL1       -0.3649
     14 C           3.1300   -0.3445    2.0376 C.3     1  UNL1        0.1339
     15 O           2.2951    0.4164    2.9343 O.3     1  UNL1       -0.3841
     16 C           2.2788   -1.4087    1.3347 C.3     1  UNL1        0.1144
     17 O           1.5433   -2.1621    2.3122 O.3     1  UNL1       -0.3864
     18 C          -1.8692    0.7735    1.5574 C.3     1  UNL1        0.1341
     19 O          -1.4454    2.1452    1.4352 O.3     1  UNL1       -0.3841
     20 C          -3.3269    0.6616    1.1235 C.3     1  UNL1        0.1141
     21 O          -3.8399   -0.6359    1.4568 O.3     1  UNL1       -0.3864
     22 C          -3.4780    0.8841   -0.3885 C.3     1  UNL1        0.1119
     23 O          -4.8290    0.5478   -0.7450 O.3     1  UNL1       -0.3865
     24 H          -3.7022    0.3929   -4.1733 H       1  UNL1        0.2095
     25 H          -2.1284    1.3989   -2.8279 H       1  UNL1        0.0584
     26 H          -1.8006   -0.2922   -3.2112 H       1  UNL1        0.0584
     27 H          -2.7315   -1.0347   -1.0756 H       1  UNL1        0.0647
     28 H          -1.2488   -1.1937    0.8243 H       1  UNL1        0.0938
     29 H           0.7474   -1.5582   -0.1802 H       1  UNL1        0.0651
     30 H           1.3287    0.7454   -1.1813 H       1  UNL1        0.0647
     31 H           3.5786   -1.3337   -1.2700 H       1  UNL1        0.0584
     32 H           3.3958    0.0461   -2.3566 H       1  UNL1        0.0584
     33 H           2.4999   -1.8551   -3.1959 H       1  UNL1        0.2095
     34 H           4.2249    1.4385    1.5349 H       1  UNL1        0.0935
     35 H           5.4819    0.6106    0.0741 H       1  UNL1        0.2126
     36 H           3.8837   -0.8355    2.6630 H       1  UNL1        0.0671
     37 H           1.5718    0.7854    2.3843 H       1  UNL1        0.2101
     38 H           2.9284   -2.1175    0.8106 H       1  UNL1        0.0648
     39 H           1.2746   -1.5117    2.9932 H       1  UNL1        0.2100
     40 H          -1.7472    0.4905    2.6093 H       1  UNL1        0.0671
     41 H          -0.4775    2.1084    1.3104 H       1  UNL1        0.2101
     42 H          -3.9440    1.3934    1.6565 H       1  UNL1        0.0648
     43 H          -4.7101   -0.6734    1.0044 H       1  UNL1        0.2100
     44 H          -3.3163    1.9451   -0.6108 H       1  UNL1        0.0647
     45 H          -4.8443    0.4899   -1.7270 H       1  UNL1        0.2100
@<TRIPOS>BOND
     1     1     2    1
     2     2     3    1
     3     3     4    1
     4     4     5    1
     5     5     6    1
     6     6     7    1
     7     7     8    1
     8     8     9    1
     9     9    10    1
    10     8    11    1
    11    11    12    1
    12    12    13    1
    13    12    14    1
    14    14    15    1
    15    14    16    1
    16    16    17    1
    17     5    18    1
    18    18    19    1
    19    18    20    1
    20    20    21    1
    21    20    22    1
    22    22    23    1
    23    22     3    1
    24    16     7    1
    25     1    24    1
    26     2    25    1
    27     2    26    1
    28     3    27    1
    29     5    28    1
    30     7    29    1
    31     8    30    1
    32     9    31    1
    33     9    32    1
    34    10    33    1
    35    12    34    1
    36    13    35    1
    37    14    36    1
    38    15    37    1
    39    16    38    1
    40    17    39    1
    41    18    40    1
    42    19    41    1
    43    20    42    1
    44    21    43    1
    45    22    44    1
    46    23    45    1
