@<TRIPOS>MOLECULE
*****
 20 19 0 0 0
SMALL
GASTEIGER

@<TRIPOS>ATOM
      1 C          -1.6561   -1.1356   -0.3831 C.3     1  UNL1       -0.0365
      2 C          -0.8207    0.1200   -0.6223 C.3     1  UNL1        0.0790
      3 C          -1.6644    1.3882   -0.4226 C.3     1  UNL1        0.0701
      4 O          -2.1526    1.4646    0.9160 O.3     1  UNL1       -0.3925
      5 O           0.2644    0.1943    0.3204 O.3     1  UNL1       -0.3723
      6 C           1.3360   -0.7115    0.0222 C.3     1  UNL1        0.0712
      7 C           2.4738   -0.4311    0.9992 C.3     1  UNL1        0.0676
      8 O           2.9388    0.9065    0.8256 O.3     1  UNL1       -0.3927
      9 H          -1.9329   -1.2346    0.6719 H       1  UNL1        0.0255
     10 H          -1.0925   -2.0362   -0.6461 H       1  UNL1        0.0255
     11 H          -2.5670   -1.1255   -0.9898 H       1  UNL1        0.0255
     12 H          -0.4259    0.1248   -1.6453 H       1  UNL1        0.0616
     13 H          -1.0546    2.2810   -0.5959 H       1  UNL1        0.0583
     14 H          -2.5192    1.4106   -1.1052 H       1  UNL1        0.0583
     15 H          -1.3864    1.2484    1.4820 H       1  UNL1        0.2095
     16 H           1.0000   -1.7459    0.1351 H       1  UNL1        0.0583
     17 H           1.6765   -0.5368   -1.0043 H       1  UNL1        0.0583
     18 H           2.1343   -0.5320    2.0348 H       1  UNL1        0.0580
     19 H           3.3119   -1.1123    0.8290 H       1  UNL1        0.0580
     20 H           2.1369    1.4632    0.8403 H       1  UNL1        0.2095
@<TRIPOS>BOND
     1     1     2    1
     2     2     3    1
     3     3     4    1
     4     2     5    1
     5     5     6    1
     6     6     7    1
     7     7     8    1
     8     1     9    1
     9     1    10    1
    10     1    11    1
    11     2    12    1
    12     3    13    1
    13     3    14    1
    14     4    15    1
    15     6    16    1
    16     6    17    1
    17     7    18    1
    18     7    19    1
    19     8    20    1
