@<TRIPOS>MOLECULE
*****
 26 25 0 0 0
SMALL
GASTEIGER

@<TRIPOS>ATOM
      1 C           3.7741    0.4295   -0.1956 C.3     1  UNL1       -0.0306
      2 C           2.5203    0.2094   -1.0189 C.3     1  UNL1        0.0897
      3 O           1.3855    0.4308   -0.1731 O.3     1  UNL1       -0.4646
      4 C           0.1836    0.2933   -0.8002 C.2     1  UNL1        0.3150
      5 O           0.0376   -0.0631   -1.9625 O.2     1  UNL1       -0.2504
      6 C          -0.9484    0.5671    0.1601 C.3     1  UNL1        0.1073
      7 C          -1.8269    1.6685   -0.4275 C.3     1  UNL1        0.0596
      8 O          -1.1136    2.9051   -0.4181 O.3     1  UNL1       -0.3941
      9 C          -1.7238   -0.7331    0.3782 C.3     1  UNL1        0.0932
     10 C          -0.8745   -1.8284    1.0401 C.3     1  UNL1        0.0710
     11 O          -1.7222   -2.9521    1.2960 O.3     1  UNL1       -0.3924
     12 O          -2.8519   -0.4856    1.2332 O.3     1  UNL1       -0.3886
     13 H           3.7961    1.4469    0.2087 H       1  UNL1        0.0262
     14 H           3.7983   -0.2536    0.6599 H       1  UNL1        0.0262
     15 H           4.6711    0.2701   -0.8005 H       1  UNL1        0.0262
     16 H           2.5024   -0.8186   -1.3979 H       1  UNL1        0.0694
     17 H           2.4999    0.9135   -1.8583 H       1  UNL1        0.0694
     18 H          -0.5408    0.9276    1.1137 H       1  UNL1        0.0463
     19 H          -2.7325    1.8135    0.1697 H       1  UNL1        0.0566
     20 H          -2.1226    1.4511   -1.4596 H       1  UNL1        0.0566
     21 H          -1.7202    3.5816   -0.7677 H       1  UNL1        0.2094
     22 H          -2.1314   -1.1136   -0.5666 H       1  UNL1        0.0625
     23 H          -0.0511   -2.1520    0.3972 H       1  UNL1        0.0583
     24 H          -0.4801   -1.4889    2.0033 H       1  UNL1        0.0583
     25 H          -1.1619   -3.6415    1.6955 H       1  UNL1        0.2095
     26 H          -3.1671   -1.3775    1.4907 H       1  UNL1        0.2099
@<TRIPOS>BOND
     1     1     2    1
     2     2     3    1
     3     3     4    1
     4     4     5    2
     5     4     6    1
     6     6     7    1
     7     7     8    1
     8     6     9    1
     9     9    10    1
    10    10    11    1
    11     9    12    1
    12     1    13    1
    13     1    14    1
    14     1    15    1
    15     2    16    1
    16     2    17    1
    17     6    18    1
    18     7    19    1
    19     7    20    1
    20     8    21    1
    21     9    22    1
    22    10    23    1
    23    10    24    1
    24    11    25    1
    25    12    26    1
