@<TRIPOS>MOLECULE
*****
 31 31 0 0 0
SMALL
GASTEIGER

@<TRIPOS>ATOM
      1 O           1.8520   -0.3356   -2.9655 O.3     1  UNL1       -0.3924
      2 C           2.6369    0.2044   -1.8995 C.3     1  UNL1        0.0726
      3 C           2.0466   -0.2317   -0.5573 C.3     1  UNL1        0.1052
      4 O           0.7489    0.3806   -0.4750 O.3     1  UNL1       -0.3635
      5 C          -0.2331   -0.4463    0.1540 C.3     1  UNL1        0.1158
      6 C          -1.3979   -0.7468   -0.8133 C.3     1  UNL1        0.1121
      7 O          -1.0590   -0.5739   -2.1883 O.3     1  UNL1       -0.3865
      8 C          -2.5190    0.1907   -0.3644 C.3     1  UNL1        0.1118
      9 O          -3.7927   -0.2909   -0.7813 O.3     1  UNL1       -0.3865
     10 C          -2.3615    0.1624    1.1519 C.3     1  UNL1        0.1118
     11 O          -3.1150    1.2008    1.7692 O.3     1  UNL1       -0.3865
     12 C          -0.8568    0.3596    1.3097 C.3     1  UNL1        0.1121
     13 O          -0.4065   -0.0980    2.5831 O.3     1  UNL1       -0.3865
     14 C           2.9036    0.2465    0.6190 C.3     1  UNL1        0.0726
     15 O           2.3554   -0.2101    1.8641 O.3     1  UNL1       -0.3924
     16 H           0.9097   -0.2187   -2.7047 H       1  UNL1        0.2095
     17 H           2.6264    1.2942   -2.0049 H       1  UNL1        0.0584
     18 H           3.6628   -0.1555   -2.0206 H       1  UNL1        0.0584
     19 H           1.9502   -1.3244   -0.5539 H       1  UNL1        0.0642
     20 H           0.1933   -1.3869    0.5234 H       1  UNL1        0.0650
     21 H          -1.7195   -1.7886   -0.6880 H       1  UNL1        0.0647
     22 H          -1.9032   -0.6376   -2.6760 H       1  UNL1        0.2100
     23 H          -2.3998    1.1992   -0.7782 H       1  UNL1        0.0647
     24 H          -4.4459    0.2431   -0.2878 H       1  UNL1        0.2100
     25 H          -2.7044   -0.7866    1.5815 H       1  UNL1        0.0647
     26 H          -2.8101    1.2310    2.6968 H       1  UNL1        0.2100
     27 H          -0.5976    1.4240    1.2493 H       1  UNL1        0.0647
     28 H           0.5742   -0.1391    2.5131 H       1  UNL1        0.2100
     29 H           3.9242   -0.1403    0.5347 H       1  UNL1        0.0584
     30 H           2.9322    1.3402    0.6599 H       1  UNL1        0.0584
     31 H           3.0059    0.0345    2.5490 H       1  UNL1        0.2095
@<TRIPOS>BOND
     1     1     2    1
     2     2     3    1
     3     3     4    1
     4     4     5    1
     5     5     6    1
     6     6     7    1
     7     6     8    1
     8     8     9    1
     9     8    10    1
    10    10    11    1
    11    10    12    1
    12    12    13    1
    13     3    14    1
    14    14    15    1
    15    12     5    1
    16     1    16    1
    17     2    17    1
    18     2    18    1
    19     3    19    1
    20     5    20    1
    21     6    21    1
    22     7    22    1
    23     8    23    1
    24     9    24    1
    25    10    25    1
    26    11    26    1
    27    12    27    1
    28    13    28    1
    29    14    29    1
    30    14    30    1
    31    15    31    1
