@<TRIPOS>MOLECULE
*****
 20 20 0 0 0
SMALL
GASTEIGER

@<TRIPOS>ATOM
      1 C           1.2207   -0.1921    1.0197 C.3     1  UNL1        0.0792
      2 C           0.9840    1.0361    0.1285 C.3     1  UNL1        0.1069
      3 C          -0.0306    0.7417   -0.9878 C.3     1  UNL1        0.1137
      4 C          -1.0785   -0.2471   -0.4980 C.3     1  UNL1        0.1339
      5 C          -0.3826   -1.5674   -0.0985 C.3     1  UNL1        0.1850
      6 O           0.9680   -1.4145    0.3210 O.3     1  UNL1       -0.3462
      7 O          -1.1326   -2.1775    0.9457 O.3     1  UNL1       -0.3649
      8 O          -1.7581    0.3466    0.6319 O.3     1  UNL1       -0.3841
      9 O          -0.6494    1.9743   -1.3875 O.3     1  UNL1       -0.3864
     10 O           2.2141    1.4605   -0.4778 O.3     1  UNL1       -0.3869
     11 H           2.2579   -0.2215    1.3693 H       1  UNL1        0.0587
     12 H           0.5751   -0.1614    1.9052 H       1  UNL1        0.0587
     13 H           0.6635    1.8760    0.7559 H       1  UNL1        0.0643
     14 H           0.4779    0.3476   -1.8756 H       1  UNL1        0.0647
     15 H          -1.8568   -0.4291   -1.2462 H       1  UNL1        0.0671
     16 H          -0.3718   -2.2447   -0.9594 H       1  UNL1        0.0935
     17 H          -0.7103   -3.0467    1.0674 H       1  UNL1        0.2126
     18 H          -2.0320   -0.4214    1.1809 H       1  UNL1        0.2101
     19 H          -1.3345    2.1527   -0.7106 H       1  UNL1        0.2100
     20 H           1.9760    2.1878   -1.0841 H       1  UNL1        0.2100
@<TRIPOS>BOND
     1     1     2    1
     2     2     3    1
     3     3     4    1
     4     4     5    1
     5     5     6    1
     6     5     7    1
     7     4     8    1
     8     3     9    1
     9     2    10    1
    10     6     1    1
    11     1    11    1
    12     1    12    1
    13     2    13    1
    14     3    14    1
    15     4    15    1
    16     5    16    1
    17     7    17    1
    18     8    18    1
    19     9    19    1
    20    10    20    1
