@<TRIPOS>MOLECULE
*****
 25 24 0 0 0
SMALL
GASTEIGER

@<TRIPOS>ATOM
      1 O          -2.8266   -1.5655   -0.0708 O.3     1  UNL1       -0.3946
      2 C          -1.8685   -1.5171    0.9792 C.3     1  UNL1        0.0516
      3 C          -0.8728   -0.3653    0.7759 C.3     1  UNL1        0.0338
      4 C          -1.6204    0.9709    0.8377 C.3     1  UNL1        0.0516
      5 O          -0.6976    2.0396    1.0095 O.3     1  UNL1       -0.3946
      6 C          -0.0920   -0.5240   -0.5454 C.3     1  UNL1        0.0902
      7 O           0.4702   -1.8497   -0.6004 O.3     1  UNL1       -0.3887
      8 C           1.0464    0.4810   -0.8059 C.3     1  UNL1        0.1044
      9 O           1.7063    0.0605   -2.0257 O.3     1  UNL1       -0.3870
     10 C           2.1147    0.5326    0.2911 C.3     1  UNL1        0.0726
     11 O           3.1863    1.3673   -0.1709 O.3     1  UNL1       -0.3924
     12 H          -2.4145   -2.0776   -0.7916 H       1  UNL1        0.2094
     13 H          -1.3640   -2.4873    1.0429 H       1  UNL1        0.0561
     14 H          -2.4150   -1.3825    1.9190 H       1  UNL1        0.0561
     15 H          -0.1602   -0.4164    1.6090 H       1  UNL1        0.0371
     16 H          -2.1977    1.1509   -0.0755 H       1  UNL1        0.0561
     17 H          -2.3060    0.9922    1.6915 H       1  UNL1        0.0561
     18 H          -1.2231    2.8582    1.0666 H       1  UNL1        0.2094
     19 H          -0.7864   -0.4695   -1.3934 H       1  UNL1        0.0624
     20 H           1.0669   -1.8234   -1.3797 H       1  UNL1        0.2099
     21 H           0.6560    1.4836   -1.0056 H       1  UNL1        0.0642
     22 H           2.5198    0.6082   -2.0494 H       1  UNL1        0.2100
     23 H           1.7270    0.9487    1.2240 H       1  UNL1        0.0584
     24 H           2.5382   -0.4587    0.4800 H       1  UNL1        0.0584
     25 H           3.8130    1.4432    0.5705 H       1  UNL1        0.2095
@<TRIPOS>BOND
     1     1     2    1
     2     2     3    1
     3     3     4    1
     4     4     5    1
     5     3     6    1
     6     6     7    1
     7     6     8    1
     8     8     9    1
     9     8    10    1
    10    10    11    1
    11     1    12    1
    12     2    13    1
    13     2    14    1
    14     3    15    1
    15     4    16    1
    16     4    17    1
    17     5    18    1
    18     6    19    1
    19     7    20    1
    20     8    21    1
    21     9    22    1
    22    10    23    1
    23    10    24    1
    24    11    25    1
