REMARK  3 active torsions:
REMARK  status: ('A' for Active; 'I' for Inactive)
REMARK    1  A    between atoms: C_2  and  N_3 
REMARK    2  A    between atoms: C_2  and  C_4 
REMARK    3  A    between atoms: C_7  and  C_10 
REMARK       I    between atoms: C_10  and  N_12 
ROOT
ATOM      1  C   UNL d   1      -0.863  -0.058   0.168  0.00  0.00    -0.026 A 
ATOM      2  C   UNL d   1      -0.062   0.289  -0.932  0.00  0.00     0.010 A 
ATOM      3  C   UNL d   1       1.333   0.286  -0.836  0.00  0.00     0.017 A 
ATOM      4  C   UNL d   1       1.948  -0.061   0.373  0.00  0.00     0.033 A 
ATOM      5  C   UNL d   1       1.159  -0.429   1.468  0.00  0.00     0.017 A 
ATOM      6  C   UNL d   1      -0.235  -0.424   1.368  0.00  0.00     0.010 A 
ENDROOT
BRANCH   1   7
ATOM      7  C   UNL d   1      -2.377  -0.071   0.066  0.00  0.00     0.246 C 
ATOM      8  C   UNL d   1      -2.867  -1.233  -0.799  0.00  0.00     0.047 C 
BRANCH   7   9
ATOM      9  N   UNL d   1      -2.877   1.195  -0.473  0.00  0.00     0.086 N 
ATOM     10  H   UNL d   1      -3.895   1.185  -0.464  0.00  0.00     0.313 HD
ATOM     11  H   UNL d   1      -2.593   1.949   0.151  0.00  0.00     0.313 HD
ENDBRANCH   7   9
ENDBRANCH   1   7
BRANCH   4  12
ATOM     12  C   UNL d   1       3.429  -0.075   0.532  0.00  0.00     0.266 C 
ATOM     13  O   UNL d   1       3.941  -0.852   1.331  0.00  0.00    -0.266 OA
ATOM     14  N   UNL d   1       4.115   0.842  -0.236  0.00  0.00    -0.265 N 
ATOM     15 CL   UNL d   1       5.827   1.025  -0.055  0.00  0.00     0.013 Cl
ATOM     16  H   UNL d   1       3.625   1.581  -0.719  0.00  0.00     0.183 HD
ENDBRANCH   4  12
TORSDOF 3
