REMARK  2 active torsions:
REMARK  status: ('A' for Active; 'I' for Inactive)
REMARK    1  A    between atoms: C_4  and  C_7 
REMARK       I    between atoms: C_7  and  N_9 
REMARK    2  A    between atoms: N_9  and  O_10 
ROOT
ATOM      1  C   UNL d   1      -2.579  -0.400  -0.039  0.00  0.00     0.000 A 
ATOM      2  C   UNL d   1      -2.143   0.810   0.498  0.00  0.00     0.001 A 
ATOM      3  C   UNL d   1      -0.776   1.068   0.616  0.00  0.00     0.017 A 
ATOM      4  C   UNL d   1       0.160   0.118   0.187  0.00  0.00     0.034 A 
ATOM      5  C   UNL d   1      -0.283  -1.103  -0.339  0.00  0.00     0.017 A 
ATOM      6  C   UNL d   1      -1.653  -1.357  -0.454  0.00  0.00     0.001 A 
ENDROOT
BRANCH   4   7
ATOM      7  C   UNL d   1       1.606   0.438   0.330  0.00  0.00     0.275 C 
ATOM      8  O   UNL d   1       1.998   1.298   1.115  0.00  0.00    -0.265 OA
ATOM      9  N   UNL d   1       2.476  -0.237  -0.502  0.00  0.00    -0.233 N 
ATOM     10  H   UNL d   1       2.167  -0.622  -1.388  0.00  0.00     0.197 HD
BRANCH   9  11
ATOM     11  O   UNL d   1       3.805   0.257  -0.483  0.00  0.00    -0.287 OA
ATOM     12  H   UNL d   1       3.758   0.952   0.212  0.00  0.00     0.244 HD
ENDBRANCH   9  11
ENDBRANCH   4   7
TORSDOF 2
