REMARK  3 active torsions:
REMARK  status: ('A' for Active; 'I' for Inactive)
REMARK    1  A    between atoms: C_2  and  C_3 
REMARK    2  A    between atoms: C_2  and  N_9 
REMARK    3  A    between atoms: N_9  and  C_11 
ROOT
ATOM      1  C   UNL d   1       0.703  -0.235  -0.163  0.00  0.00    -0.036 A 
ATOM      2  C   UNL d   1       1.334  -0.472   1.068  0.00  0.00     0.009 A 
ATOM      3  C   UNL d   1       2.607   0.043   1.329  0.00  0.00     0.001 A 
ATOM      4  C   UNL d   1       3.265   0.805   0.367  0.00  0.00     0.000 A 
ATOM      5  C   UNL d   1       2.652   1.058  -0.856  0.00  0.00     0.001 A 
ATOM      6  C   UNL d   1       1.381   0.544  -1.118  0.00  0.00     0.009 A 
ENDROOT
BRANCH   1   7
ATOM      7  C   UNL d   1      -0.690  -0.753  -0.501  0.00  0.00     0.115 C 
ATOM      8  C   UNL d   1      -1.139  -1.986   0.296  0.00  0.00     0.037 C 
BRANCH   7   9
ATOM      9  N   UNL d   1      -1.709   0.309  -0.432  0.00  0.00    -0.355 N 
ATOM     10  C   UNL d   1      -1.769   1.179   0.732  0.00  0.00     0.152 C 
BRANCH   9  11
ATOM     11  C   UNL d   1      -2.750   0.297  -1.341  0.00  0.00     0.351 C 
ATOM     12  O   UNL d   1      -2.892  -0.498  -2.261  0.00  0.00    -0.284 OA
ENDBRANCH   9  11
ENDBRANCH   7   9
ENDBRANCH   1   7
TORSDOF 3
