REMARK  2 active torsions:
REMARK  status: ('A' for Active; 'I' for Inactive)
REMARK    1  A    between atoms: C_4  and  C_9 
REMARK    2  A    between atoms: C_9  and  O_11 
ROOT
ATOM      1  O   UNL d   1       2.301   2.159   0.337  0.00  0.00    -0.284 OA
ATOM      2  C   UNL d   1       1.612   1.164   0.168  0.00  0.00     0.222 A 
ATOM      3  C   UNL d   1       0.138   1.245   0.238  0.00  0.00     0.077 A 
ATOM      4  C   UNL d   1      -0.610   0.147   0.051  0.00  0.00     0.041 A 
ATOM      5  C   UNL d   1      -0.013  -1.147  -0.224  0.00  0.00     0.022 A 
ATOM      6  C   UNL d   1       1.308  -1.339  -0.311  0.00  0.00     0.060 A 
ATOM      7  C   UNL d   1       2.235  -0.202  -0.123  0.00  0.00     0.221 A 
ATOM      8  O   UNL d   1       3.443  -0.359  -0.199  0.00  0.00    -0.284 OA
ENDROOT
BRANCH   4   9
ATOM      9  C   UNL d   1      -2.081   0.341   0.144  0.00  0.00     0.176 C 
ATOM     10  O   UNL d   1      -2.658   1.389   0.371  0.00  0.00    -0.646 OA
BRANCH   9  11
ATOM     11  O   UNL d   1      -2.767  -0.798  -0.053  0.00  0.00    -0.773 OA
ATOM     12  H   UNL d   1      -3.706  -0.527   0.035  0.00  0.00     0.167 HD
ENDBRANCH   9  11
ENDBRANCH   4   9
TORSDOF 2
