REMARK  3 active torsions:
REMARK  status: ('A' for Active; 'I' for Inactive)
REMARK    1  A    between atoms: C_3  and  N_4 
REMARK    2  A    between atoms: C_6  and  C_8 
REMARK    3  A    between atoms: C_8  and  O_10 
ROOT
ATOM      1  C   UNL d   1      -0.823   1.741   0.181  0.00  0.00     0.003 C 
ATOM      2  C   UNL d   1      -1.767   0.574  -0.097  0.00  0.00     0.035 C 
ATOM      3  C   UNL d   1      -1.200  -0.742   0.446  0.00  0.00     0.218 C 
ATOM      4  C   UNL d   1       0.201  -1.015  -0.108  0.00  0.00     0.050 C 
ATOM      5  C   UNL d   1       1.151   0.155   0.173  0.00  0.00     0.085 C 
ATOM      6  C   UNL d   1       0.576   1.472  -0.365  0.00  0.00     0.015 C 
ENDROOT
BRANCH   5   7
ATOM      7  C   UNL d   1       2.510  -0.122  -0.429  0.00  0.00     0.143 C 
ATOM      8  O   UNL d   1       3.048   0.473  -1.347  0.00  0.00    -0.650 OA
BRANCH   7   9
ATOM      9  O   UNL d   1       3.146  -1.140   0.185  0.00  0.00    -0.776 OA
ATOM     10  H   UNL d   1       3.998  -1.208  -0.295  0.00  0.00     0.167 HD
ENDBRANCH   7   9
ENDBRANCH   5   7
BRANCH   3  11
ATOM     11  N   UNL d   1      -2.093  -1.845   0.098  0.00  0.00     0.083 N 
ATOM     12  H   UNL d   1      -1.747  -2.713   0.507  0.00  0.00     0.313 HD
ATOM     13  H   UNL d   1      -3.015  -1.685   0.502  0.00  0.00     0.313 HD
ENDBRANCH   3  11
TORSDOF 3
