REMARK  12 active torsions:
REMARK  status: ('A' for Active; 'I' for Inactive)
REMARK    1  A    between atoms: O_1  and  C_2 
REMARK    2  A    between atoms: C_2  and  C_3 
REMARK    3  A    between atoms: C_5  and  O_6 
REMARK    4  A    between atoms: O_6  and  C_7 
REMARK    5  A    between atoms: C_8  and  C_9 
REMARK    6  A    between atoms: C_9  and  O_10 
REMARK    7  A    between atoms: C_12  and  O_13 
REMARK    8  A    between atoms: C_14  and  O_15 
REMARK    9  A    between atoms: C_16  and  O_17 
REMARK   10  A    between atoms: C_18  and  O_19 
REMARK   11  A    between atoms: C_20  and  O_21 
REMARK   12  A    between atoms: C_22  and  O_23 
ROOT
ATOM      1  O   UNL d   1       0.377   0.067   1.090  0.00  0.00    -0.348 OA
ENDROOT
BRANCH   1   2
ATOM      2  C   UNL d   1      -0.986  -0.138   0.677  0.00  0.00     0.292 C 
ATOM      3  O   UNL d   1      -1.127   0.225  -0.697  0.00  0.00    -0.348 OA
ATOM      4  C   UNL d   1      -2.462   0.026  -1.171  0.00  0.00     0.179 C 
ATOM      5  C   UNL d   1      -3.478   0.884  -0.389  0.00  0.00     0.180 C 
ATOM      6  C   UNL d   1      -3.327   0.662   1.123  0.00  0.00     0.183 C 
ATOM      7  C   UNL d   1      -1.869   0.773   1.557  0.00  0.00     0.204 C 
BRANCH   4   8
ATOM      8  C   UNL d   1      -2.478   0.373  -2.667  0.00  0.00     0.198 C 
BRANCH   8   9
ATOM      9  O   UNL d   1      -3.789   0.246  -3.213  0.00  0.00    -0.398 OA
ATOM     10  H   UNL d   1      -3.702   0.393  -4.173  0.00  0.00     0.209 HD
ENDBRANCH   8   9
ENDBRANCH   4   8
BRANCH   5  11
ATOM     11  O   UNL d   1      -4.829   0.548  -0.745  0.00  0.00    -0.390 OA
ATOM     12  H   UNL d   1      -4.844   0.490  -1.727  0.00  0.00     0.210 HD
ENDBRANCH   5  11
BRANCH   6  13
ATOM     13  O   UNL d   1      -3.840  -0.636   1.457  0.00  0.00    -0.390 OA
ATOM     14  H   UNL d   1      -4.710  -0.673   1.004  0.00  0.00     0.210 HD
ENDBRANCH   6  13
BRANCH   7  15
ATOM     15  O   UNL d   1      -1.445   2.145   1.435  0.00  0.00    -0.388 OA
ATOM     16  H   UNL d   1      -0.477   2.108   1.310  0.00  0.00     0.210 HD
ENDBRANCH   7  15
ENDBRANCH   1   2
BRANCH   1  17
ATOM     17  C   UNL d   1       1.301  -0.766   0.339  0.00  0.00     0.187 C 
ATOM     18  C   UNL d   1       2.068   0.138  -0.645  0.00  0.00     0.180 C 
ATOM     19  O   UNL d   1       2.894   1.098   0.043  0.00  0.00    -0.349 OA
ATOM     20  C   UNL d   1       3.804   0.576   1.005  0.00  0.00     0.288 C 
ATOM     21  C   UNL d   1       3.130  -0.344   2.038  0.00  0.00     0.204 C 
ATOM     22  C   UNL d   1       2.279  -1.409   1.335  0.00  0.00     0.183 C 
BRANCH  18  23
ATOM     23  C   UNL d   1       2.848  -0.649  -1.710  0.00  0.00     0.198 C 
BRANCH  23  24
ATOM     24  O   UNL d   1       1.960  -1.421  -2.512  0.00  0.00    -0.398 OA
ATOM     25  H   UNL d   1       2.500  -1.855  -3.196  0.00  0.00     0.209 HD
ENDBRANCH  23  24
ENDBRANCH  18  23
BRANCH  20  26
ATOM     26  O   UNL d   1       4.867  -0.092   0.347  0.00  0.00    -0.369 OA
ATOM     27  H   UNL d   1       5.482   0.611   0.074  0.00  0.00     0.212 HD
ENDBRANCH  20  26
BRANCH  21  28
ATOM     28  O   UNL d   1       2.295   0.416   2.934  0.00  0.00    -0.388 OA
ATOM     29  H   UNL d   1       1.572   0.785   2.384  0.00  0.00     0.210 HD
ENDBRANCH  21  28
BRANCH  22  30
ATOM     30  O   UNL d   1       1.543  -2.162   2.312  0.00  0.00    -0.390 OA
ATOM     31  H   UNL d   1       1.275  -1.512   2.993  0.00  0.00     0.210 HD
ENDBRANCH  22  30
ENDBRANCH   1  17
TORSDOF 12
