REMARK  9 active torsions:
REMARK  status: ('A' for Active; 'I' for Inactive)
REMARK    1  A    between atoms: C_2  and  O_3 
REMARK    2  A    between atoms: O_3  and  C_4 
REMARK    3  A    between atoms: C_4  and  C_6 
REMARK    4  A    between atoms: C_6  and  C_7 
REMARK    5  A    between atoms: C_6  and  C_9 
REMARK    6  A    between atoms: C_7  and  O_8 
REMARK    7  A    between atoms: C_9  and  C_10 
REMARK    8  A    between atoms: C_9  and  O_12 
REMARK    9  A    between atoms: C_10  and  O_11 
ROOT
ATOM      1  C   UNL d   1      -0.948   0.567   0.160  0.00  0.00     0.140 C 
ENDROOT
BRANCH   1   2
ATOM      2  C   UNL d   1       0.184   0.293  -0.800  0.00  0.00     0.267 C 
ATOM      3  O   UNL d   1       0.038  -0.063  -1.962  0.00  0.00    -0.265 OA
BRANCH   2   4
ATOM      4  O   UNL d   1       1.385   0.431  -0.173  0.00  0.00    -0.321 OA
BRANCH   4   5
ATOM      5  C   UNL d   1       2.520   0.209  -1.019  0.00  0.00     0.174 C 
ATOM      6  C   UNL d   1       3.774   0.429  -0.196  0.00  0.00     0.034 C 
ENDBRANCH   4   5
ENDBRANCH   2   4
ENDBRANCH   1   2
BRANCH   1   7
ATOM      7  C   UNL d   1      -1.827   1.669  -0.427  0.00  0.00     0.181 C 
BRANCH   7   8
ATOM      8  O   UNL d   1      -1.114   2.905  -0.418  0.00  0.00    -0.400 OA
ATOM      9  H   UNL d   1      -1.720   3.582  -0.768  0.00  0.00     0.209 HD
ENDBRANCH   7   8
ENDBRANCH   1   7
BRANCH   1  10
ATOM     10  C   UNL d   1      -1.724  -0.733   0.378  0.00  0.00     0.157 C 
BRANCH  10  11
ATOM     11  C   UNL d   1      -0.875  -1.828   1.040  0.00  0.00     0.196 C 
BRANCH  11  12
ATOM     12  O   UNL d   1      -1.722  -2.952   1.296  0.00  0.00    -0.398 OA
ATOM     13  H   UNL d   1      -1.162  -3.642   1.696  0.00  0.00     0.209 HD
ENDBRANCH  11  12
ENDBRANCH  10  11
BRANCH  10  14
ATOM     14  O   UNL d   1      -2.852  -0.486   1.233  0.00  0.00    -0.392 OA
ATOM     15  H   UNL d   1      -3.167  -1.377   1.491  0.00  0.00     0.210 HD
ENDBRANCH  10  14
ENDBRANCH   1  10
TORSDOF 9
