REMARK  4 active torsions:
REMARK  status: ('A' for Active; 'I' for Inactive)
REMARK    1  A    between atoms: C_2  and  O_10 
REMARK    2  A    between atoms: C_3  and  O_9 
REMARK    3  A    between atoms: C_4  and  O_8 
REMARK    4  A    between atoms: C_5  and  O_7 
ROOT
ATOM      1  C   UNL d   1       1.221  -0.192   1.020  0.00  0.00     0.205 C 
ATOM      2  C   UNL d   1       0.984   1.036   0.129  0.00  0.00     0.173 C 
ATOM      3  C   UNL d   1      -0.031   0.742  -0.988  0.00  0.00     0.182 C 
ATOM      4  C   UNL d   1      -1.079  -0.247  -0.498  0.00  0.00     0.204 C 
ATOM      5  C   UNL d   1      -0.383  -1.567  -0.099  0.00  0.00     0.288 C 
ATOM      6  O   UNL d   1       0.968  -1.415   0.321  0.00  0.00    -0.356 OA
ENDROOT
BRANCH   2   7
ATOM      7  O   UNL d   1       2.214   1.460  -0.478  0.00  0.00    -0.391 OA
ATOM      8  H   UNL d   1       1.976   2.188  -1.084  0.00  0.00     0.210 HD
ENDBRANCH   2   7
BRANCH   3   9
ATOM      9  O   UNL d   1      -0.649   1.974  -1.387  0.00  0.00    -0.390 OA
ATOM     10  H   UNL d   1      -1.335   2.153  -0.711  0.00  0.00     0.210 HD
ENDBRANCH   3   9
BRANCH   4  11
ATOM     11  O   UNL d   1      -1.758   0.347   0.632  0.00  0.00    -0.388 OA
ATOM     12  H   UNL d   1      -2.032  -0.421   1.181  0.00  0.00     0.210 HD
ENDBRANCH   4  11
BRANCH   5  13
ATOM     13  O   UNL d   1      -1.133  -2.178   0.946  0.00  0.00    -0.369 OA
ATOM     14  H   UNL d   1      -0.710  -3.047   1.067  0.00  0.00     0.212 HD
ENDBRANCH   5  13
TORSDOF 4
