REMARK  10 active torsions:
REMARK  status: ('A' for Active; 'I' for Inactive)
REMARK    1  A    between atoms: C_4  and  O_5 
REMARK    2  A    between atoms: O_5  and  C_6 
REMARK    3  A    between atoms: C_7  and  C_8 
REMARK    4  A    between atoms: C_8  and  O_9 
REMARK    5  A    between atoms: C_11  and  O_12 
REMARK    6  A    between atoms: C_13  and  O_14 
REMARK    7  A    between atoms: C_15  and  O_16 
REMARK    8  A    between atoms: C_17  and  O_18 
REMARK    9  A    between atoms: C_19  and  O_20 
REMARK   10  A    between atoms: C_21  and  O_22 
ROOT
ATOM      1  C   UNL d   1      -1.140   0.752  -0.010  0.00  0.00     0.187 C 
ATOM      2  C   UNL d   1      -1.602  -0.701   0.229  0.00  0.00     0.180 C 
ATOM      3  O   UNL d   1      -3.019  -0.860  -0.014  0.00  0.00    -0.349 OA
ATOM      4  C   UNL d   1      -3.837   0.024   0.736  0.00  0.00     0.288 C 
ATOM      5  C   UNL d   1      -3.491   1.497   0.463  0.00  0.00     0.204 C 
ATOM      6  C   UNL d   1      -2.016   1.752   0.765  0.00  0.00     0.183 C 
ENDROOT
BRANCH   1   7
ATOM      7  O   UNL d   1       0.233   0.964   0.342  0.00  0.00    -0.348 OA
BRANCH   7   8
ATOM      8  C   UNL d   1       1.145   0.783  -0.744  0.00  0.00     0.292 C 
ATOM      9  O   UNL d   1       1.126  -0.552  -1.251  0.00  0.00    -0.351 OA
ATOM     10  C   UNL d   1       2.088  -1.409  -0.627  0.00  0.00     0.152 C 
ATOM     11  C   UNL d   1       1.835  -2.833  -1.106  0.00  0.00     0.042 C 
ATOM     12  C   UNL d   1       3.524  -0.955  -0.960  0.00  0.00     0.178 C 
ATOM     13  C   UNL d   1       3.602   0.571  -1.132  0.00  0.00     0.183 C 
ATOM     14  C   UNL d   1       2.542   1.243  -0.266  0.00  0.00     0.204 C 
BRANCH  12  15
ATOM     15  O   UNL d   1       4.400  -1.368   0.097  0.00  0.00    -0.390 OA
ATOM     16  H   UNL d   1       5.158  -0.746   0.050  0.00  0.00     0.210 HD
ENDBRANCH  12  15
BRANCH  13  17
ATOM     17  O   UNL d   1       4.916   1.030  -0.774  0.00  0.00    -0.390 OA
ATOM     18  H   UNL d   1       4.826   2.003  -0.695  0.00  0.00     0.210 HD
ENDBRANCH  13  17
BRANCH  14  19
ATOM     19  O   UNL d   1       2.685   2.671  -0.355  0.00  0.00    -0.388 OA
ATOM     20  H   UNL d   1       2.014   3.041   0.252  0.00  0.00     0.210 HD
ENDBRANCH  14  19
ENDBRANCH   7   8
ENDBRANCH   1   7
BRANCH   2  21
ATOM     21  C   UNL d   1      -1.212  -1.298   1.591  0.00  0.00     0.198 C 
BRANCH  21  22
ATOM     22  O   UNL d   1      -1.557  -2.689   1.619  0.00  0.00    -0.398 OA
ATOM     23  H   UNL d   1      -2.395  -2.779   1.129  0.00  0.00     0.209 HD
ENDBRANCH  21  22
ENDBRANCH   2  21
BRANCH   6  24
ATOM     24  O   UNL d   1      -1.805   1.655   2.182  0.00  0.00    -0.390 OA
ATOM     25  H   UNL d   1      -2.465   2.261   2.579  0.00  0.00     0.210 HD
ENDBRANCH   6  24
BRANCH   5  26
ATOM     26  O   UNL d   1      -4.296   2.365   1.277  0.00  0.00    -0.388 OA
ATOM     27  H   UNL d   1      -5.219   2.083   1.109  0.00  0.00     0.210 HD
ENDBRANCH   5  26
BRANCH   4  28
ATOM     28  O   UNL d   1      -5.187  -0.174   0.327  0.00  0.00    -0.369 OA
ATOM     29  H   UNL d   1      -5.381  -1.101   0.551  0.00  0.00     0.212 HD
ENDBRANCH   4  28
TORSDOF 10
