REMARK  4 active torsions:
REMARK  status: ('A' for Active; 'I' for Inactive)
REMARK    1  A    between atoms: O_1  and  C_2 
REMARK    2  A    between atoms: C_2  and  C_3 
REMARK    3  A    between atoms: C_5  and  O_9 
REMARK    4  A    between atoms: C_7  and  O_8 
ROOT
ATOM      1  C   UNL d   1       0.748  -0.240   0.188  0.00  0.00     0.177 C 
ATOM      2  O   UNL d   1       0.453   1.178   0.201  0.00  0.00    -0.351 OA
ATOM      3  C   UNL d   1      -0.961   1.329   0.086  0.00  0.00     0.260 C 
ATOM      4  C   UNL d   1      -1.579  -0.014   0.413  0.00  0.00     0.095 C 
ATOM      5  C   UNL d   1      -0.550  -0.960  -0.162  0.00  0.00     0.153 C 
ENDROOT
BRANCH   1   6
ATOM      6  C   UNL d   1       1.865  -0.507  -0.816  0.00  0.00     0.198 C 
BRANCH   6   7
ATOM      7  O   UNL d   1       3.037   0.220  -0.440  0.00  0.00    -0.398 OA
ATOM      8  H   UNL d   1       2.725   1.117  -0.212  0.00  0.00     0.209 HD
ENDBRANCH   6   7
ENDBRANCH   1   6
BRANCH   5   9
ATOM      9  O   UNL d   1      -0.629  -2.248   0.425  0.00  0.00    -0.393 OA
ATOM     10  H   UNL d   1      -1.499  -2.621   0.197  0.00  0.00     0.210 HD
ENDBRANCH   5   9
BRANCH   3  11
ATOM     11  O   UNL d   1      -1.259   1.665  -1.255  0.00  0.00    -0.371 OA
ATOM     12  H   UNL d   1      -0.931   2.575  -1.365  0.00  0.00     0.212 HD
ENDBRANCH   3  11
TORSDOF 4
